                                  MODFLOW-NWT-SWR1 
      U.S. GEOLOGICAL SURVEY MODULAR FINITE-DIFFERENCE GROUNDWATER-FLOW MODEL
                            VERSION 1.1.3, 8/01/2017
                    BASED ON MODFLOW-2005 VERSION 1.11.00 08/08/2013

 LIST FILE: freyberg.list
                         UNIT    2
#                                                                                                                                                                                                                                                                                                           
# Model Input                                                                                                                                                                                                                                                                                               
#                                                                                                                                                                                                                                                                                                           

 OPENING ./input/freyberg.hyd
 FILE TYPE:HYD   UNIT   36   STATUS:OLD    
 FORMAT:FORMATTED              ACCESS:SEQUENTIAL          

 OPENING ./input/freyberg.dis
 FILE TYPE:DIS   UNIT   11   STATUS:OLD    
 FORMAT:FORMATTED              ACCESS:SEQUENTIAL          

 OPENING ./input/freyberg.lpf
 FILE TYPE:LPF   UNIT   31   STATUS:OLD    
 FORMAT:FORMATTED              ACCESS:SEQUENTIAL          

 OPENING ./input/freyberg.pcg
 FILE TYPE:PCG   UNIT   32   STATUS:OLD    
 FORMAT:FORMATTED              ACCESS:SEQUENTIAL          

 OPENING ./input/freyberg.bas
 FILE TYPE:BAS6   UNIT   13   STATUS:OLD    
 FORMAT:FORMATTED              ACCESS:SEQUENTIAL          

 OPENING ./input/freyberg.rch
 FILE TYPE:RCH   UNIT   19   STATUS:OLD    
 FORMAT:FORMATTED              ACCESS:SEQUENTIAL          

 OPENING ./input/freyberg.wel
 FILE TYPE:WEL   UNIT   20   STATUS:OLD    
 FORMAT:FORMATTED              ACCESS:SEQUENTIAL          

 OPENING ./input/freyberg.riv
 FILE TYPE:RIV   UNIT   18   STATUS:OLD    
 FORMAT:FORMATTED              ACCESS:SEQUENTIAL          

 OPENING ./input/freyberg.oc
 FILE TYPE:OC   UNIT   14   STATUS:OLD    
 FORMAT:FORMATTED              ACCESS:SEQUENTIAL          

 OPENING ./input/freyberg.hob
 FILE TYPE:HOB   UNIT   15   STATUS:OLD    
 FORMAT:FORMATTED              ACCESS:SEQUENTIAL          
#                                                                                                                                                                                                                                                                                                           
# Model Output                                                                                                                                                                                                                                                                                              
#                                                                                                                                                                                                                                                                                                           

 OPENING ./output/freyberg.hobs
 FILE TYPE:DATA   UNIT   42   STATUS:UNKNOWN
 FORMAT:FORMATTED              ACCESS:SEQUENTIAL          

 OPENING ./output/freyberg.hds
 FILE TYPE:DATA(BINARY)   UNIT   51   STATUS:REPLACE
 FORMAT:BINARY                 ACCESS:SEQUENTIAL          

 OPENING ./output/freyberg.ddn
 FILE TYPE:DATA(BINARY)   UNIT   52   STATUS:REPLACE
 FORMAT:BINARY                 ACCESS:SEQUENTIAL          

 OPENING ./output/freyberg.cbc
 FILE TYPE:DATA(BINARY)   UNIT   53   STATUS:REPLACE
 FORMAT:BINARY                 ACCESS:SEQUENTIAL          

 OPENING ./output/freyberg.hyd.bin
 FILE TYPE:DATA(BINARY)   UNIT  536   STATUS:REPLACE
 FORMAT:BINARY                 ACCESS:SEQUENTIAL          

 BAS -- BASIC PACKAGE, VERSION 1.1.3, 8/01/2017 INPUT READ FROM UNIT   13
 
 MODFLOW was compiled using mixed precision
 Precision of REAL variables:           6
 Precision of DOUBLE PRECISION variables:          15

 DISCRETIZATION INPUT DATA READ FROM UNIT   11
 # Discretization file for MODFLOW, generated by Flopy.
    1 LAYERS        40 ROWS        20 COLUMNS
    3 STRESS PERIOD(S) IN SIMULATION
 MODEL TIME UNIT IS DAYS
 MODEL LENGTH UNIT IS METERS
  Confining bed flag for each layer:
   0

                     DELR =   250.000    

                     DELC =   250.000    

 TOP ELEVATION OF LAYER 1 =   35.0000    

 OPENING FILE ON UNIT   99:
 .\input\dis_support\botm.ref                                                                                                                                                                            



             MODEL LAYER BOTTOM EL. FOR LAYER   1
 READING ON UNIT   99 WITH FORMAT: (10E12.4)           


 STRESS PERIOD     LENGTH       TIME STEPS     MULTIPLIER FOR DELT    SS FLAG
 ----------------------------------------------------------------------------
        1         1.000000          1                    1.000         SS
        2         1825.000          1                    1.000         TR
        3         1.000000          1                    1.000         SS

 COMBINED STEADY-STATE AND TRANSIENT SIMULATION



 
 # Basic package file for MODFLOW, generated by Flopy.                           
 THE FREE FORMAT OPTION HAS BEEN SELECTED

 OPENING FILE ON UNIT   99:
 .\input\bas_support\ibound.ref                                                                                                                                                                          



                     BOUNDARY ARRAY FOR LAYER   1
 READING ON UNIT   99 WITH FORMAT: (25I3)              

 AQUIFER HEAD WILL BE SET TO  -999.99     AT ALL NO-FLOW NODES (IBOUND=0).

 OPENING FILE ON UNIT   99:
 .\input\bas_support\strt.ref                                                                                                                                                                            



                       INITIAL HEAD FOR LAYER   1
 READING ON UNIT   99 WITH FORMAT: (10E12.4)           
 # Output control package file for MODFLOW, generated by Flopy.

 OUTPUT CONTROL IS SPECIFIED ONLY AT TIME STEPS FOR WHICH OUTPUT IS DESIRED
 COMPACT CELL-BY-CELL BUDGET FILES WILL BE WRITTEN
 AUXILIARY DATA WILL BE SAVED IN CELL-BY-CELL BUDGET FILES
 HEAD PRINT FORMAT CODE IS   0    DRAWDOWN PRINT FORMAT CODE IS   0
 HEADS WILL BE SAVED ON UNIT   51    DRAWDOWNS WILL BE SAVED ON UNIT   52

 LPF -- LAYER-PROPERTY FLOW PACKAGE, VERSION 7, 5/2/2005
         INPUT READ FROM UNIT   31
 # LPF for MODFLOW-2005, generated by Flopy.
 CELL-BY-CELL FLOWS WILL BE SAVED ON UNIT   53
 HEAD AT CELLS THAT CONVERT TO DRY= -1.00000E+30
 No named parameters

   LAYER FLAGS:
 LAYER       LAYTYP        LAYAVG         CHANI        LAYVKA        LAYWET
 ---------------------------------------------------------------------------
    1             1             0     1.000E+00             0             0

   INTERPRETATION OF LAYER FLAGS:
                        INTERBLOCK     HORIZONTAL    DATA IN
         LAYER TYPE   TRANSMISSIVITY   ANISOTROPY   ARRAY VKA   WETTABILITY
 LAYER      (LAYTYP)      (LAYAVG)       (CHANI)      (LAYVKA)      (LAYWET)
 ---------------------------------------------------------------------------
    1   CONVERTIBLE      HARMONIC     1.000E+00    VERTICAL K  NON-WETTABLE

 WETTING CAPABILITY IS NOT ACTIVE IN ANY LAYER

 OPENING FILE ON UNIT   99:
 .\input\lpf_support\hk.ref                                                                                                                                                                              



              HYD. COND. ALONG ROWS FOR LAYER   1
 READING ON UNIT   99 WITH FORMAT: (FREE)              

            1           2           3           4           5           6           7           8           9          10
           11          12          13          14          15          16          17          18          19          20
 ........................................................................................................................
   1    4.946       4.946       4.946       4.946       4.946       4.946       4.946       4.946       4.946       4.946    
        4.946       4.946       4.946       4.946       4.946       4.946       4.946       4.946       4.946       4.946    
   2    4.946       4.946       4.946       4.946       4.946       4.946       4.946       4.946       4.946       4.946    
        4.946       4.946       4.946       4.946       4.946       4.946       4.946       4.946       4.946       4.946    
   3    4.946       4.946       4.946       4.946       4.946       4.946       4.946       4.946       4.946       4.946    
        4.946       4.946       4.946       4.946       4.946       4.946       4.946       4.946       4.946       4.946    
   4    4.946       4.946       4.946       4.946       4.946       4.946       4.946       4.946       4.946       4.946    
        4.946       4.946       4.946       4.946       4.946       4.946       4.946       4.946       4.946       4.946    
   5    4.946       4.946       4.946       4.946       4.946       4.946       4.946       4.946       4.946       4.946    
        4.946       4.946       4.946       4.946       4.946       4.946       4.946       4.946       4.946       4.946    
   6    4.946       4.946       4.946       4.946       4.946       4.946       4.946       4.946       4.946       4.946    
        4.946       4.946       4.946       4.946       4.946       4.946       4.946       4.946       4.946       4.946    
   7    4.946       4.946       4.946       4.946       4.946       4.946       4.946       4.946       4.946       4.946    
        4.946       4.946       4.946       4.946       4.946       4.946       4.946       4.946       4.946       4.946    
   8    4.946       4.946       4.946       4.946       4.946       4.946       4.946       4.946       4.946       4.946    
        4.946       4.946       4.946       4.946       4.946       4.946       4.946       4.946       4.946       4.946    
   9    4.946       4.946       4.946       4.946       4.946       4.946       4.946       4.946       4.946       4.946    
        4.946       4.946       4.946       4.946       4.946       4.946       4.946       4.946       4.946       4.946    
  10    4.946       4.946       4.946       4.946       4.946       4.946       4.946       4.946       4.946       4.946    
        4.946       4.946       4.946       4.946       4.946       4.946       4.946       4.946       4.946       4.946    
  11    4.946       4.946       4.946       4.946       4.946       4.946       4.946       4.946       4.946       4.946    
        4.946       4.946       4.946       4.946       4.946       4.946       4.946       4.946       4.946       4.946    
  12    4.946       4.946       4.946       4.946       4.946       4.946       4.946       4.946       4.946       4.946    
        4.946       4.946       4.946       4.946       4.946       4.946       4.946       4.946       4.946       4.946    
  13    4.946       4.946       4.946       4.946       4.946       4.946       4.946       4.946       4.946       4.946    
        4.946       4.946       4.946       4.946       4.946       4.946       4.946       4.946       4.946       4.946    
  14    4.946       4.946       4.946       4.946       4.946       4.946       4.946       4.946       4.946       4.946    
        4.946       4.946       4.946       4.946       4.946       4.946       4.946       4.946       4.946       4.946    
  15    4.946       4.946       4.946       4.946       4.946       4.946       4.946       4.946       4.946       4.946    
        4.946       4.946       4.946       4.946       4.946       4.946       4.946       4.946       4.946       4.946    
  16    4.946       4.946       4.946       4.946       4.946       4.946       4.946       4.946       4.946       4.946    
        4.946       4.946       4.946       4.946       4.946       4.946       4.946       4.946       4.946       4.946    
  17    4.946       4.946       4.946       4.946       4.946       4.946       4.946       4.946       4.946       4.946    
        4.946       4.946       4.946       4.946       4.946       4.946       4.946       4.946       4.946       4.946    
  18    4.946       4.946       4.946       4.946       4.946       4.946       4.946       4.946       4.946       4.946    
        4.946       4.946       4.946       4.946       4.946       4.946       4.946       4.946       4.946       4.946    
  19    4.946       4.946       4.946       4.946       4.946       4.946       4.946       4.946       4.946       4.946    
        4.946       4.946       4.946       4.946       4.946       4.946       4.946       4.946       4.946       4.946    
  20    4.946       4.946       4.946       4.946       4.946       4.946       4.946       4.946       4.946       4.946    
        4.946       4.946       4.946       4.946       4.946       4.946       4.946       4.946       4.946       4.946    
  21    4.946       4.946       4.946       4.946       4.946       4.946       4.946       4.946       4.946       4.946    
        4.946       4.946       4.946       4.946       4.946       4.946       4.946       4.946       4.946       4.946    
  22    4.946       4.946       4.946       4.946       4.946       4.946       4.946       4.946       4.946       4.946    
        4.946       4.946       4.946       4.946       4.946       4.946       4.946       4.946       4.946       4.946    
  23    4.946       4.946       4.946       4.946       4.946       4.946       4.946       4.946       4.946       4.946    
        4.946       4.946       4.946       4.946       4.946       4.946       4.946       4.946       4.946       4.946    
  24    4.946       4.946       4.946       4.946       4.946       4.946       4.946       4.946       4.946       4.946    
        4.946       4.946       4.946       4.946       4.946       4.946       4.946       4.946       4.946       4.946    
  25    4.946       4.946       4.946       4.946       4.946       4.946       4.946       4.946       4.946       4.946    
        4.946       4.946       4.946       4.946       4.946       4.946       4.946       4.946       4.946       4.946    
  26    4.946       4.946       4.946       4.946       4.946       4.946       4.946       4.946       4.946       4.946    
        4.946       4.946       4.946       4.946       4.946       4.946       4.946       4.946       4.946       4.946    
  27    4.946       4.946       4.946       4.946       4.946       4.946       4.946       4.946       4.946       4.946    
        4.946       4.946       4.946       4.946       4.946       4.946       4.946       4.946       4.946       4.946    
  28    4.946       4.946       4.946       4.946       4.946       4.946       4.946       4.946       4.946       4.946    
        4.946       4.946       4.946       4.946       4.946       4.946       4.946       4.946       4.946       4.946    
  29    4.946       4.946       4.946       4.946       4.946       4.946       4.946       4.946       4.946       4.946    
        4.946       4.946       4.946       4.946       4.946       4.946       4.946       4.946       4.946       4.946    
  30    4.946       4.946       4.946       4.946       4.946       4.946       4.946       4.946       4.946       4.946    
        4.946       4.946       4.946       4.946       4.946       4.946       4.946       4.946       4.946       4.946    
  31    4.946       4.946       4.946       4.946       4.946       4.946       4.946       4.946       4.946       4.946    
        4.946       4.946       4.946       4.946       4.946       4.946       4.946       4.946       4.946       4.946    
  32    4.946       4.946       4.946       4.946       4.946       4.946       4.946       4.946       4.946       4.946    
        4.946       4.946       4.946       4.946       4.946       4.946       4.946       4.946       4.946       4.946    
  33    4.946       4.946       4.946       4.946       4.946       4.946       4.946       4.946       4.946       4.946    
        4.946       4.946       4.946       4.946       4.946       4.946       4.946       4.946       4.946       4.946    
  34    4.946       4.946       4.946       4.946       4.946       4.946       4.946       4.946       4.946       4.946    
        4.946       4.946       4.946       4.946       4.946       4.946       4.946       4.946       4.946       4.946    
  35    4.946       4.946       4.946       4.946       4.946       4.946       4.946       4.946       4.946       4.946    
        4.946       4.946       4.946       4.946       4.946       4.946       4.946       4.946       4.946       4.946    
  36    4.946       4.946       4.946       4.946       4.946       4.946       4.946       4.946       4.946       4.946    
        4.946       4.946       4.946       4.946       4.946       4.946       4.946       4.946       4.946       4.946    
  37    4.946       4.946       4.946       4.946       4.946       4.946       4.946       4.946       4.946       4.946    
        4.946       4.946       4.946       4.946       4.946       4.946       4.946       4.946       4.946       4.946    
  38    4.946       4.946       4.946       4.946       4.946       4.946       4.946       4.946       4.946       4.946    
        4.946       4.946       4.946       4.946       4.946       4.946       4.946       4.946       4.946       4.946    
  39    4.946       4.946       4.946       4.946       4.946       4.946       4.946       4.946       4.946       4.946    
        4.946       4.946       4.946       4.946       4.946       4.946       4.946       4.946       4.946       4.946    
  40    4.946       4.946       4.946       4.946       4.946       4.946       4.946       4.946       4.946       4.946    
        4.946       4.946       4.946       4.946       4.946       4.946       4.946       4.946       4.946       4.946    

      VERTICAL HYD. COND. =   1.00000     FOR LAYER   1

         SPECIFIC STORAGE =  1.000000E-04 FOR LAYER   1

           SPECIFIC YIELD =  0.250000     FOR LAYER   1

 WEL -- WELL PACKAGE FOR NWT VERSION 1.1.3,  8/01/2017 INPUT READ FROM UNIT   20
 # Well file for MODFLOW, generated by Flopy.
 No named parameters
 MAXIMUM OF      6 ACTIVE WELLS AT ONE TIME
 No named parameters


     0 Well parameters

 RIV -- RIVER PACKAGE, VERSION 7, 5/2/2005 INPUT READ FROM UNIT   18
 # RIV for MODFLOW, generated by Flopy.
 No named parameters
 MAXIMUM OF     40 ACTIVE RIVER REACHES AT ONE TIME


     0 River parameters

 RCH -- RECHARGE PACKAGE, VERSION 7, 5/2/2005 INPUT READ FROM UNIT   19
 # RCH for MODFLOW, generated by Flopy.
 No named parameters
 OPTION 3 -- RECHARGE TO HIGHEST ACTIVE NODE IN EACH VERTICAL COLUMN


     0 Recharge parameters

 PCG -- CONJUGATE-GRADIENT SOLUTION PACKAGE, VERSION 7, 5/2/2005
 MAXIMUM OF    100 CALLS OF SOLUTION ROUTINE
 MAXIMUM OF     25 INTERNAL ITERATIONS PER CALL TO SOLUTION ROUTINE
 MATRIX PRECONDITIONING TYPE :    1
 IHCOFADD option -- When an active cell is surrounded by dry cells, convert
 the cell to dry only if storage and head-dependent boundary flow are 0.



                                    SOLUTION BY THE CONJUGATE-GRADIENT METHOD
                                   -------------------------------------------
                    MAXIMUM NUMBER OF CALLS TO PCG ROUTINE =      100
                        MAXIMUM ITERATIONS PER CALL TO PCG =       25
                               MATRIX PRECONDITIONING TYPE =        1
        RELAXATION FACTOR (ONLY USED WITH PRECOND. TYPE 1) =    0.10000E+01
 PARAMETER OF POLYNOMIAL PRECOND. = 2 (2) OR IS CALCULATED :        2
                         HEAD CHANGE CRITERION FOR CLOSURE =    0.10000E-04
                     RESIDUAL CHANGE CRITERION FOR CLOSURE =    0.10000E+00
            PCG HEAD AND RESIDUAL CHANGE PRINTOUT INTERVAL =        5
     PRINTING FROM SOLVER IS LIMITED(1) OR SUPPRESSED (>1) =        0
                            STEADY-STATE DAMPING PARAMETER =    0.70000E+00
                               TRANSIENT DAMPING PARAMETER =    0.70000E+00

 HYD -- HYDROGRAPH DATA FOR BAS PACKAGE, VERSION 7, 07/14/2006
         INPUT READ FROM UNIT 36
 HYDROGRAPH VALUES WILL BE SAVED ON UNIT: 536
 HYDROGRAPH VALUES AT DRY CELLS WILL BE:  -1.00000E+07

 ARR INTYP  KLAY     XL            YL         HYDLBL
 ----------------------------------------------------------------
 HD   I      1   4.12500E+03   9.12500E+03  HDI001cr03c16       
 HD   I      1   2.62500E+03   9.12500E+03  HDI001cr03c10       
 HD   I      1   2.37500E+03   8.87500E+03  HDI001cr04c9        
 HD   I      1   6.25000E+02   7.37500E+03  HDI001cr10c2        
 HD   I      1   2.87500E+03   6.37500E+03  HDI001cr14c11       
 HD   I      1   4.37500E+03   5.87500E+03  HDI001cr16c17       
 HD   I      1   2.87500E+03   4.37500E+03  HDI001cr22c11       
 HD   I      1   4.12500E+03   4.12500E+03  HDI001cr23c16       
 HD   I      1   1.37500E+03   3.62500E+03  HDI001cr25c5        
 HD   I      1   1.87500E+03   3.12500E+03  HDI001cr27c7        
 HD   I      1   4.12500E+03   2.37500E+03  HDI001cr30c16       
 HD   I      1   2.12500E+03   1.37500E+03  HDI001cr34c8        
 HD   I      1   2.87500E+03   1.12500E+03  HDI001cr35c11       
 HD   I      1   4.12500E+03   9.12500E+03  HDI001fr03c16       
 HD   I      1   2.62500E+03   9.12500E+03  HDI001fr03c10       
 HD   I      1   2.37500E+03   8.87500E+03  HDI001fr04c9        
 HD   I      1   6.25000E+02   7.37500E+03  HDI001fr10c2        
 HD   I      1   2.87500E+03   6.37500E+03  HDI001fr14c11       
 HD   I      1   4.37500E+03   5.87500E+03  HDI001fr16c17       
 HD   I      1   2.87500E+03   4.37500E+03  HDI001fr22c11       
 HD   I      1   4.12500E+03   4.12500E+03  HDI001fr23c16       
 HD   I      1   1.37500E+03   3.62500E+03  HDI001fr25c5        
 HD   I      1   1.87500E+03   3.12500E+03  HDI001fr27c7        
 HD   I      1   4.12500E+03   2.37500E+03  HDI001fr30c16       
 HD   I      1   2.12500E+03   1.37500E+03  HDI001fr34c8        
 HD   I      1   2.87500E+03   1.12500E+03  HDI001fr35c11       
 HD   I      1   6.25000E+02   9.37500E+03  HDI001fr02c02       
 HD   I      1   3.37500E+03   9.62500E+03  HDI001fr01c13       
 HD   I      1   3.87500E+03   7.62500E+03  HDI001fr09c15       
 HD   I      1   2.62500E+03   3.62500E+03  HDI001fr25c10       
 HD   I      1   3.75000E+02   9.62500E+03  HDI001pr01c01       
 HD   I      1   6.25000E+02   9.62500E+03  HDI001pr01c02       
 HD   I      1   8.75000E+02   9.62500E+03  HDI001pr01c03       
 HD   I      1   1.12500E+03   9.62500E+03  HDI001pr01c04       
 HD   I      1   1.37500E+03   9.62500E+03  HDI001pr01c05       
 HD   I      1   1.62500E+03   9.62500E+03  HDI001pr01c06       
 HD   I      1   1.87500E+03   9.62500E+03  HDI001pr01c07       
 HD   I      1   2.12500E+03   9.62500E+03  HDI001pr01c08       
 HD   I      1   2.37500E+03   9.62500E+03  HDI001pr01c09       
 HD   I      1   2.62500E+03   9.62500E+03  HDI001pr01c10       
 HD   I      1   2.87500E+03   9.62500E+03  HDI001pr01c11       
 HD   I      1   3.12500E+03   9.62500E+03  HDI001pr01c12       
 HD   I      1   3.37500E+03   9.62500E+03  HDI001pr01c13       
 HD   I      1   3.62500E+03   9.62500E+03  HDI001pr01c14       
 HD   I      1   3.87500E+03   9.62500E+03  HDI001pr01c15       
 HD   I      1   4.12500E+03   9.62500E+03  HDI001pr01c16       
 HD   I      1   4.37500E+03   9.62500E+03  HDI001pr01c17       
 HD   I      1   4.62500E+03   9.62500E+03  HDI001pr01c18       
 HD   I      1   3.75000E+02   9.37500E+03  HDI001pr02c01       
 HD   I      1   6.25000E+02   9.37500E+03  HDI001pr02c02       
 HD   I      1   8.75000E+02   9.37500E+03  HDI001pr02c03       
 HD   I      1   1.12500E+03   9.37500E+03  HDI001pr02c04       
 HD   I      1   1.37500E+03   9.37500E+03  HDI001pr02c05       
 HD   I      1   1.62500E+03   9.37500E+03  HDI001pr02c06       
 HD   I      1   1.87500E+03   9.37500E+03  HDI001pr02c07       
 HD   I      1   2.12500E+03   9.37500E+03  HDI001pr02c08       
 HD   I      1   2.37500E+03   9.37500E+03  HDI001pr02c09       
 HD   I      1   2.62500E+03   9.37500E+03  HDI001pr02c10       
 HD   I      1   2.87500E+03   9.37500E+03  HDI001pr02c11       
 HD   I      1   3.12500E+03   9.37500E+03  HDI001pr02c12       
 HD   I      1   3.37500E+03   9.37500E+03  HDI001pr02c13       
 HD   I      1   3.62500E+03   9.37500E+03  HDI001pr02c14       
 HD   I      1   3.87500E+03   9.37500E+03  HDI001pr02c15       
 HD   I      1   4.12500E+03   9.37500E+03  HDI001pr02c16       
 HD   I      1   4.37500E+03   9.37500E+03  HDI001pr02c17       
 HD   I      1   4.62500E+03   9.37500E+03  HDI001pr02c18       
 HD   I      1   3.75000E+02   9.12500E+03  HDI001pr03c01       
 HD   I      1   6.25000E+02   9.12500E+03  HDI001pr03c02       
 HD   I      1   8.75000E+02   9.12500E+03  HDI001pr03c03       
 HD   I      1   1.12500E+03   9.12500E+03  HDI001pr03c04       
 HD   I      1   1.37500E+03   9.12500E+03  HDI001pr03c05       
 HD   I      1   1.62500E+03   9.12500E+03  HDI001pr03c06       
 HD   I      1   1.87500E+03   9.12500E+03  HDI001pr03c07       
 HD   I      1   2.12500E+03   9.12500E+03  HDI001pr03c08       
 HD   I      1   2.37500E+03   9.12500E+03  HDI001pr03c09       
 HD   I      1   2.62500E+03   9.12500E+03  HDI001pr03c10       
 HD   I      1   2.87500E+03   9.12500E+03  HDI001pr03c11       
 HD   I      1   3.12500E+03   9.12500E+03  HDI001pr03c12       
 HD   I      1   3.37500E+03   9.12500E+03  HDI001pr03c13       
 HD   I      1   3.62500E+03   9.12500E+03  HDI001pr03c14       
 HD   I      1   3.87500E+03   9.12500E+03  HDI001pr03c15       
 HD   I      1   4.12500E+03   9.12500E+03  HDI001pr03c16       
 HD   I      1   4.37500E+03   9.12500E+03  HDI001pr03c17       
 HD   I      1   4.62500E+03   9.12500E+03  HDI001pr03c18       
 HD   I      1   3.75000E+02   8.87500E+03  HDI001pr04c01       
 HD   I      1   6.25000E+02   8.87500E+03  HDI001pr04c02       
 HD   I      1   8.75000E+02   8.87500E+03  HDI001pr04c03       
 HD   I      1   1.12500E+03   8.87500E+03  HDI001pr04c04       
 HD   I      1   1.37500E+03   8.87500E+03  HDI001pr04c05       
 HD   I      1   1.62500E+03   8.87500E+03  HDI001pr04c06       
 HD   I      1   1.87500E+03   8.87500E+03  HDI001pr04c07       
 HD   I      1   2.12500E+03   8.87500E+03  HDI001pr04c08       
 HD   I      1   2.37500E+03   8.87500E+03  HDI001pr04c09       
 HD   I      1   2.62500E+03   8.87500E+03  HDI001pr04c10       
 HD   I      1   2.87500E+03   8.87500E+03  HDI001pr04c11       
 HD   I      1   3.12500E+03   8.87500E+03  HDI001pr04c12       
 HD   I      1   3.37500E+03   8.87500E+03  HDI001pr04c13       
 HD   I      1   3.62500E+03   8.87500E+03  HDI001pr04c14       
 HD   I      1   3.87500E+03   8.87500E+03  HDI001pr04c15       
 HD   I      1   4.12500E+03   8.87500E+03  HDI001pr04c16       
 HD   I      1   4.37500E+03   8.87500E+03  HDI001pr04c17       
 HD   I      1   4.62500E+03   8.87500E+03  HDI001pr04c18       
 HD   I      1   3.75000E+02   8.62500E+03  HDI001pr05c01       
 HD   I      1   6.25000E+02   8.62500E+03  HDI001pr05c02       
 HD   I      1   8.75000E+02   8.62500E+03  HDI001pr05c03       
 HD   I      1   1.12500E+03   8.62500E+03  HDI001pr05c04       
 HD   I      1   1.37500E+03   8.62500E+03  HDI001pr05c05       
 HD   I      1   1.62500E+03   8.62500E+03  HDI001pr05c06       
 HD   I      1   1.87500E+03   8.62500E+03  HDI001pr05c07       
 HD   I      1   2.12500E+03   8.62500E+03  HDI001pr05c08       
 HD   I      1   2.37500E+03   8.62500E+03  HDI001pr05c09       
 HD   I      1   2.62500E+03   8.62500E+03  HDI001pr05c10       
 HD   I      1   2.87500E+03   8.62500E+03  HDI001pr05c11       
 HD   I      1   3.12500E+03   8.62500E+03  HDI001pr05c12       
 HD   I      1   3.37500E+03   8.62500E+03  HDI001pr05c13       
 HD   I      1   3.62500E+03   8.62500E+03  HDI001pr05c14       
 HD   I      1   3.87500E+03   8.62500E+03  HDI001pr05c15       
 HD   I      1   4.12500E+03   8.62500E+03  HDI001pr05c16       
 HD   I      1   4.37500E+03   8.62500E+03  HDI001pr05c17       
 HD   I      1   4.62500E+03   8.62500E+03  HDI001pr05c18       
 HD   I      1   3.75000E+02   8.37500E+03  HDI001pr06c01       
 HD   I      1   6.25000E+02   8.37500E+03  HDI001pr06c02       
 HD   I      1   8.75000E+02   8.37500E+03  HDI001pr06c03       
 HD   I      1   1.12500E+03   8.37500E+03  HDI001pr06c04       
 HD   I      1   1.37500E+03   8.37500E+03  HDI001pr06c05       
 HD   I      1   1.62500E+03   8.37500E+03  HDI001pr06c06       
 HD   I      1   1.87500E+03   8.37500E+03  HDI001pr06c07       
 HD   I      1   2.12500E+03   8.37500E+03  HDI001pr06c08       
 HD   I      1   2.37500E+03   8.37500E+03  HDI001pr06c09       
 HD   I      1   2.62500E+03   8.37500E+03  HDI001pr06c10       
 HD   I      1   2.87500E+03   8.37500E+03  HDI001pr06c11       
 HD   I      1   3.12500E+03   8.37500E+03  HDI001pr06c12       
 HD   I      1   3.37500E+03   8.37500E+03  HDI001pr06c13       
 HD   I      1   3.62500E+03   8.37500E+03  HDI001pr06c14       
 HD   I      1   3.87500E+03   8.37500E+03  HDI001pr06c15       
 HD   I      1   4.12500E+03   8.37500E+03  HDI001pr06c16       
 HD   I      1   4.37500E+03   8.37500E+03  HDI001pr06c17       
 HD   I      1   4.62500E+03   8.37500E+03  HDI001pr06c18       
 HD   I      1   3.75000E+02   8.12500E+03  HDI001pr07c01       
 HD   I      1   6.25000E+02   8.12500E+03  HDI001pr07c02       
 HD   I      1   8.75000E+02   8.12500E+03  HDI001pr07c03       
 HD   I      1   1.12500E+03   8.12500E+03  HDI001pr07c04       
 HD   I      1   1.37500E+03   8.12500E+03  HDI001pr07c05       
 HD   I      1   1.62500E+03   8.12500E+03  HDI001pr07c06       
 HD   I      1   1.87500E+03   8.12500E+03  HDI001pr07c07       
 HD   I      1   2.12500E+03   8.12500E+03  HDI001pr07c08       
 HD   I      1   2.37500E+03   8.12500E+03  HDI001pr07c09       
 HD   I      1   2.62500E+03   8.12500E+03  HDI001pr07c10       
 HD   I      1   2.87500E+03   8.12500E+03  HDI001pr07c11       
 HD   I      1   3.12500E+03   8.12500E+03  HDI001pr07c12       
 HD   I      1   3.37500E+03   8.12500E+03  HDI001pr07c13       
 HD   I      1   3.62500E+03   8.12500E+03  HDI001pr07c14       
 HD   I      1   3.87500E+03   8.12500E+03  HDI001pr07c15       
 HD   I      1   4.12500E+03   8.12500E+03  HDI001pr07c16       
 HD   I      1   4.37500E+03   8.12500E+03  HDI001pr07c17       
 HD   I      1   4.62500E+03   8.12500E+03  HDI001pr07c18       
 HD   I      1   3.75000E+02   7.87500E+03  HDI001pr08c01       
 HD   I      1   6.25000E+02   7.87500E+03  HDI001pr08c02       
 HD   I      1   8.75000E+02   7.87500E+03  HDI001pr08c03       
 HD   I      1   1.87500E+03   7.87500E+03  HDI001pr08c07       
 HD   I      1   2.12500E+03   7.87500E+03  HDI001pr08c08       
 HD   I      1   2.37500E+03   7.87500E+03  HDI001pr08c09       
 HD   I      1   2.62500E+03   7.87500E+03  HDI001pr08c10       
 HD   I      1   2.87500E+03   7.87500E+03  HDI001pr08c11       
 HD   I      1   3.12500E+03   7.87500E+03  HDI001pr08c12       
 HD   I      1   3.37500E+03   7.87500E+03  HDI001pr08c13       
 HD   I      1   3.62500E+03   7.87500E+03  HDI001pr08c14       
 HD   I      1   3.87500E+03   7.87500E+03  HDI001pr08c15       
 HD   I      1   4.12500E+03   7.87500E+03  HDI001pr08c16       
 HD   I      1   4.37500E+03   7.87500E+03  HDI001pr08c17       
 HD   I      1   4.62500E+03   7.87500E+03  HDI001pr08c18       
 HD   I      1   3.75000E+02   7.62500E+03  HDI001pr09c01       
 HD   I      1   6.25000E+02   7.62500E+03  HDI001pr09c02       
 HD   I      1   8.75000E+02   7.62500E+03  HDI001pr09c03       
 HD   I      1   2.12500E+03   7.62500E+03  HDI001pr09c08       
 HD   I      1   2.37500E+03   7.62500E+03  HDI001pr09c09       
 HD   I      1   2.62500E+03   7.62500E+03  HDI001pr09c10       
 HD   I      1   2.87500E+03   7.62500E+03  HDI001pr09c11       
 HD   I      1   3.12500E+03   7.62500E+03  HDI001pr09c12       
 HD   I      1   3.37500E+03   7.62500E+03  HDI001pr09c13       
 HD   I      1   3.62500E+03   7.62500E+03  HDI001pr09c14       
 HD   I      1   3.87500E+03   7.62500E+03  HDI001pr09c15       
 HD   I      1   4.12500E+03   7.62500E+03  HDI001pr09c16       
 HD   I      1   4.37500E+03   7.62500E+03  HDI001pr09c17       
 HD   I      1   4.62500E+03   7.62500E+03  HDI001pr09c18       
 HD   I      1   3.75000E+02   7.37500E+03  HDI001pr10c01       
 HD   I      1   6.25000E+02   7.37500E+03  HDI001pr10c02       
 HD   I      1   8.75000E+02   7.37500E+03  HDI001pr10c03       
 HD   I      1   2.12500E+03   7.37500E+03  HDI001pr10c08       
 HD   I      1   2.37500E+03   7.37500E+03  HDI001pr10c09       
 HD   I      1   2.62500E+03   7.37500E+03  HDI001pr10c10       
 HD   I      1   2.87500E+03   7.37500E+03  HDI001pr10c11       
 HD   I      1   3.12500E+03   7.37500E+03  HDI001pr10c12       
 HD   I      1   3.37500E+03   7.37500E+03  HDI001pr10c13       
 HD   I      1   3.62500E+03   7.37500E+03  HDI001pr10c14       
 HD   I      1   3.87500E+03   7.37500E+03  HDI001pr10c15       
 HD   I      1   4.12500E+03   7.37500E+03  HDI001pr10c16       
 HD   I      1   4.37500E+03   7.37500E+03  HDI001pr10c17       
 HD   I      1   4.62500E+03   7.37500E+03  HDI001pr10c18       
 HD   I      1   3.75000E+02   7.12500E+03  HDI001pr11c01       
 HD   I      1   6.25000E+02   7.12500E+03  HDI001pr11c02       
 HD   I      1   8.75000E+02   7.12500E+03  HDI001pr11c03       
 HD   I      1   2.12500E+03   7.12500E+03  HDI001pr11c08       
 HD   I      1   2.37500E+03   7.12500E+03  HDI001pr11c09       
 HD   I      1   2.62500E+03   7.12500E+03  HDI001pr11c10       
 HD   I      1   2.87500E+03   7.12500E+03  HDI001pr11c11       
 HD   I      1   3.12500E+03   7.12500E+03  HDI001pr11c12       
 HD   I      1   3.37500E+03   7.12500E+03  HDI001pr11c13       
 HD   I      1   3.62500E+03   7.12500E+03  HDI001pr11c14       
 HD   I      1   3.87500E+03   7.12500E+03  HDI001pr11c15       
 HD   I      1   4.12500E+03   7.12500E+03  HDI001pr11c16       
 HD   I      1   4.37500E+03   7.12500E+03  HDI001pr11c17       
 HD   I      1   4.62500E+03   7.12500E+03  HDI001pr11c18       
 HD   I      1   3.75000E+02   6.87500E+03  HDI001pr12c01       
 HD   I      1   6.25000E+02   6.87500E+03  HDI001pr12c02       
 HD   I      1   8.75000E+02   6.87500E+03  HDI001pr12c03       
 HD   I      1   2.12500E+03   6.87500E+03  HDI001pr12c08       
 HD   I      1   2.37500E+03   6.87500E+03  HDI001pr12c09       
 HD   I      1   2.62500E+03   6.87500E+03  HDI001pr12c10       
 HD   I      1   2.87500E+03   6.87500E+03  HDI001pr12c11       
 HD   I      1   3.12500E+03   6.87500E+03  HDI001pr12c12       
 HD   I      1   3.37500E+03   6.87500E+03  HDI001pr12c13       
 HD   I      1   3.62500E+03   6.87500E+03  HDI001pr12c14       
 HD   I      1   3.87500E+03   6.87500E+03  HDI001pr12c15       
 HD   I      1   4.12500E+03   6.87500E+03  HDI001pr12c16       
 HD   I      1   4.37500E+03   6.87500E+03  HDI001pr12c17       
 HD   I      1   4.62500E+03   6.87500E+03  HDI001pr12c18       
 HD   I      1   3.75000E+02   6.62500E+03  HDI001pr13c01       
 HD   I      1   6.25000E+02   6.62500E+03  HDI001pr13c02       
 HD   I      1   8.75000E+02   6.62500E+03  HDI001pr13c03       
 HD   I      1   2.12500E+03   6.62500E+03  HDI001pr13c08       
 HD   I      1   2.37500E+03   6.62500E+03  HDI001pr13c09       
 HD   I      1   2.62500E+03   6.62500E+03  HDI001pr13c10       
 HD   I      1   2.87500E+03   6.62500E+03  HDI001pr13c11       
 HD   I      1   3.12500E+03   6.62500E+03  HDI001pr13c12       
 HD   I      1   3.37500E+03   6.62500E+03  HDI001pr13c13       
 HD   I      1   3.62500E+03   6.62500E+03  HDI001pr13c14       
 HD   I      1   3.87500E+03   6.62500E+03  HDI001pr13c15       
 HD   I      1   4.12500E+03   6.62500E+03  HDI001pr13c16       
 HD   I      1   4.37500E+03   6.62500E+03  HDI001pr13c17       
 HD   I      1   4.62500E+03   6.62500E+03  HDI001pr13c18       
 HD   I      1   3.75000E+02   6.37500E+03  HDI001pr14c01       
 HD   I      1   6.25000E+02   6.37500E+03  HDI001pr14c02       
 HD   I      1   8.75000E+02   6.37500E+03  HDI001pr14c03       
 HD   I      1   2.12500E+03   6.37500E+03  HDI001pr14c08       
 HD   I      1   2.37500E+03   6.37500E+03  HDI001pr14c09       
 HD   I      1   2.62500E+03   6.37500E+03  HDI001pr14c10       
 HD   I      1   2.87500E+03   6.37500E+03  HDI001pr14c11       
 HD   I      1   3.12500E+03   6.37500E+03  HDI001pr14c12       
 HD   I      1   3.37500E+03   6.37500E+03  HDI001pr14c13       
 HD   I      1   3.62500E+03   6.37500E+03  HDI001pr14c14       
 HD   I      1   3.87500E+03   6.37500E+03  HDI001pr14c15       
 HD   I      1   4.12500E+03   6.37500E+03  HDI001pr14c16       
 HD   I      1   4.37500E+03   6.37500E+03  HDI001pr14c17       
 HD   I      1   4.62500E+03   6.37500E+03  HDI001pr14c18       
 HD   I      1   3.75000E+02   6.12500E+03  HDI001pr15c01       
 HD   I      1   6.25000E+02   6.12500E+03  HDI001pr15c02       
 HD   I      1   8.75000E+02   6.12500E+03  HDI001pr15c03       
 HD   I      1   2.12500E+03   6.12500E+03  HDI001pr15c08       
 HD   I      1   2.37500E+03   6.12500E+03  HDI001pr15c09       
 HD   I      1   2.62500E+03   6.12500E+03  HDI001pr15c10       
 HD   I      1   2.87500E+03   6.12500E+03  HDI001pr15c11       
 HD   I      1   3.12500E+03   6.12500E+03  HDI001pr15c12       
 HD   I      1   3.37500E+03   6.12500E+03  HDI001pr15c13       
 HD   I      1   3.62500E+03   6.12500E+03  HDI001pr15c14       
 HD   I      1   3.87500E+03   6.12500E+03  HDI001pr15c15       
 HD   I      1   4.12500E+03   6.12500E+03  HDI001pr15c16       
 HD   I      1   4.37500E+03   6.12500E+03  HDI001pr15c17       
 HD   I      1   4.62500E+03   6.12500E+03  HDI001pr15c18       
 HD   I      1   3.75000E+02   5.87500E+03  HDI001pr16c01       
 HD   I      1   6.25000E+02   5.87500E+03  HDI001pr16c02       
 HD   I      1   8.75000E+02   5.87500E+03  HDI001pr16c03       
 HD   I      1   2.12500E+03   5.87500E+03  HDI001pr16c08       
 HD   I      1   2.37500E+03   5.87500E+03  HDI001pr16c09       
 HD   I      1   2.62500E+03   5.87500E+03  HDI001pr16c10       
 HD   I      1   2.87500E+03   5.87500E+03  HDI001pr16c11       
 HD   I      1   3.12500E+03   5.87500E+03  HDI001pr16c12       
 HD   I      1   3.37500E+03   5.87500E+03  HDI001pr16c13       
 HD   I      1   3.62500E+03   5.87500E+03  HDI001pr16c14       
 HD   I      1   3.87500E+03   5.87500E+03  HDI001pr16c15       
 HD   I      1   4.12500E+03   5.87500E+03  HDI001pr16c16       
 HD   I      1   4.37500E+03   5.87500E+03  HDI001pr16c17       
 HD   I      1   4.62500E+03   5.87500E+03  HDI001pr16c18       
 HD   I      1   3.75000E+02   5.62500E+03  HDI001pr17c01       
 HD   I      1   6.25000E+02   5.62500E+03  HDI001pr17c02       
 HD   I      1   8.75000E+02   5.62500E+03  HDI001pr17c03       
 HD   I      1   2.12500E+03   5.62500E+03  HDI001pr17c08       
 HD   I      1   2.37500E+03   5.62500E+03  HDI001pr17c09       
 HD   I      1   2.62500E+03   5.62500E+03  HDI001pr17c10       
 HD   I      1   2.87500E+03   5.62500E+03  HDI001pr17c11       
 HD   I      1   3.12500E+03   5.62500E+03  HDI001pr17c12       
 HD   I      1   3.37500E+03   5.62500E+03  HDI001pr17c13       
 HD   I      1   3.62500E+03   5.62500E+03  HDI001pr17c14       
 HD   I      1   3.87500E+03   5.62500E+03  HDI001pr17c15       
 HD   I      1   4.12500E+03   5.62500E+03  HDI001pr17c16       
 HD   I      1   4.37500E+03   5.62500E+03  HDI001pr17c17       
 HD   I      1   4.62500E+03   5.62500E+03  HDI001pr17c18       
 HD   I      1   3.75000E+02   5.37500E+03  HDI001pr18c01       
 HD   I      1   6.25000E+02   5.37500E+03  HDI001pr18c02       
 HD   I      1   8.75000E+02   5.37500E+03  HDI001pr18c03       
 HD   I      1   2.12500E+03   5.37500E+03  HDI001pr18c08       
 HD   I      1   2.37500E+03   5.37500E+03  HDI001pr18c09       
 HD   I      1   2.62500E+03   5.37500E+03  HDI001pr18c10       
 HD   I      1   2.87500E+03   5.37500E+03  HDI001pr18c11       
 HD   I      1   3.12500E+03   5.37500E+03  HDI001pr18c12       
 HD   I      1   3.37500E+03   5.37500E+03  HDI001pr18c13       
 HD   I      1   3.62500E+03   5.37500E+03  HDI001pr18c14       
 HD   I      1   3.87500E+03   5.37500E+03  HDI001pr18c15       
 HD   I      1   4.12500E+03   5.37500E+03  HDI001pr18c16       
 HD   I      1   4.37500E+03   5.37500E+03  HDI001pr18c17       
 HD   I      1   4.62500E+03   5.37500E+03  HDI001pr18c18       
 HD   I      1   3.75000E+02   5.12500E+03  HDI001pr19c01       
 HD   I      1   6.25000E+02   5.12500E+03  HDI001pr19c02       
 HD   I      1   8.75000E+02   5.12500E+03  HDI001pr19c03       
 HD   I      1   2.12500E+03   5.12500E+03  HDI001pr19c08       
 HD   I      1   2.37500E+03   5.12500E+03  HDI001pr19c09       
 HD   I      1   2.62500E+03   5.12500E+03  HDI001pr19c10       
 HD   I      1   2.87500E+03   5.12500E+03  HDI001pr19c11       
 HD   I      1   3.12500E+03   5.12500E+03  HDI001pr19c12       
 HD   I      1   3.37500E+03   5.12500E+03  HDI001pr19c13       
 HD   I      1   3.62500E+03   5.12500E+03  HDI001pr19c14       
 HD   I      1   3.87500E+03   5.12500E+03  HDI001pr19c15       
 HD   I      1   4.12500E+03   5.12500E+03  HDI001pr19c16       
 HD   I      1   4.37500E+03   5.12500E+03  HDI001pr19c17       
 HD   I      1   4.62500E+03   5.12500E+03  HDI001pr19c18       
 HD   I      1   3.75000E+02   4.87500E+03  HDI001pr20c01       
 HD   I      1   6.25000E+02   4.87500E+03  HDI001pr20c02       
 HD   I      1   8.75000E+02   4.87500E+03  HDI001pr20c03       
 HD   I      1   2.12500E+03   4.87500E+03  HDI001pr20c08       
 HD   I      1   2.37500E+03   4.87500E+03  HDI001pr20c09       
 HD   I      1   2.62500E+03   4.87500E+03  HDI001pr20c10       
 HD   I      1   2.87500E+03   4.87500E+03  HDI001pr20c11       
 HD   I      1   3.12500E+03   4.87500E+03  HDI001pr20c12       
 HD   I      1   3.37500E+03   4.87500E+03  HDI001pr20c13       
 HD   I      1   3.62500E+03   4.87500E+03  HDI001pr20c14       
 HD   I      1   3.87500E+03   4.87500E+03  HDI001pr20c15       
 HD   I      1   4.12500E+03   4.87500E+03  HDI001pr20c16       
 HD   I      1   4.37500E+03   4.87500E+03  HDI001pr20c17       
 HD   I      1   4.62500E+03   4.87500E+03  HDI001pr20c18       
 HD   I      1   3.75000E+02   4.62500E+03  HDI001pr21c01       
 HD   I      1   6.25000E+02   4.62500E+03  HDI001pr21c02       
 HD   I      1   8.75000E+02   4.62500E+03  HDI001pr21c03       
 HD   I      1   1.62500E+03   4.62500E+03  HDI001pr21c06       
 HD   I      1   1.87500E+03   4.62500E+03  HDI001pr21c07       
 HD   I      1   2.12500E+03   4.62500E+03  HDI001pr21c08       
 HD   I      1   2.37500E+03   4.62500E+03  HDI001pr21c09       
 HD   I      1   2.62500E+03   4.62500E+03  HDI001pr21c10       
 HD   I      1   2.87500E+03   4.62500E+03  HDI001pr21c11       
 HD   I      1   3.12500E+03   4.62500E+03  HDI001pr21c12       
 HD   I      1   3.37500E+03   4.62500E+03  HDI001pr21c13       
 HD   I      1   3.62500E+03   4.62500E+03  HDI001pr21c14       
 HD   I      1   3.87500E+03   4.62500E+03  HDI001pr21c15       
 HD   I      1   4.12500E+03   4.62500E+03  HDI001pr21c16       
 HD   I      1   4.37500E+03   4.62500E+03  HDI001pr21c17       
 HD   I      1   4.62500E+03   4.62500E+03  HDI001pr21c18       
 HD   I      1   3.75000E+02   4.37500E+03  HDI001pr22c01       
 HD   I      1   6.25000E+02   4.37500E+03  HDI001pr22c02       
 HD   I      1   8.75000E+02   4.37500E+03  HDI001pr22c03       
 HD   I      1   1.12500E+03   4.37500E+03  HDI001pr22c04       
 HD   I      1   1.62500E+03   4.37500E+03  HDI001pr22c06       
 HD   I      1   1.87500E+03   4.37500E+03  HDI001pr22c07       
 HD   I      1   2.12500E+03   4.37500E+03  HDI001pr22c08       
 HD   I      1   2.37500E+03   4.37500E+03  HDI001pr22c09       
 HD   I      1   2.62500E+03   4.37500E+03  HDI001pr22c10       
 HD   I      1   2.87500E+03   4.37500E+03  HDI001pr22c11       
 HD   I      1   3.12500E+03   4.37500E+03  HDI001pr22c12       
 HD   I      1   3.37500E+03   4.37500E+03  HDI001pr22c13       
 HD   I      1   3.62500E+03   4.37500E+03  HDI001pr22c14       
 HD   I      1   3.87500E+03   4.37500E+03  HDI001pr22c15       
 HD   I      1   4.12500E+03   4.37500E+03  HDI001pr22c16       
 HD   I      1   4.37500E+03   4.37500E+03  HDI001pr22c17       
 HD   I      1   4.62500E+03   4.37500E+03  HDI001pr22c18       
 HD   I      1   3.75000E+02   4.12500E+03  HDI001pr23c01       
 HD   I      1   6.25000E+02   4.12500E+03  HDI001pr23c02       
 HD   I      1   8.75000E+02   4.12500E+03  HDI001pr23c03       
 HD   I      1   1.12500E+03   4.12500E+03  HDI001pr23c04       
 HD   I      1   1.37500E+03   4.12500E+03  HDI001pr23c05       
 HD   I      1   1.62500E+03   4.12500E+03  HDI001pr23c06       
 HD   I      1   1.87500E+03   4.12500E+03  HDI001pr23c07       
 HD   I      1   2.12500E+03   4.12500E+03  HDI001pr23c08       
 HD   I      1   2.37500E+03   4.12500E+03  HDI001pr23c09       
 HD   I      1   2.62500E+03   4.12500E+03  HDI001pr23c10       
 HD   I      1   2.87500E+03   4.12500E+03  HDI001pr23c11       
 HD   I      1   3.12500E+03   4.12500E+03  HDI001pr23c12       
 HD   I      1   3.37500E+03   4.12500E+03  HDI001pr23c13       
 HD   I      1   3.62500E+03   4.12500E+03  HDI001pr23c14       
 HD   I      1   3.87500E+03   4.12500E+03  HDI001pr23c15       
 HD   I      1   4.12500E+03   4.12500E+03  HDI001pr23c16       
 HD   I      1   4.37500E+03   4.12500E+03  HDI001pr23c17       
 HD   I      1   4.62500E+03   4.12500E+03  HDI001pr23c18       
 HD   I      1   3.75000E+02   3.87500E+03  HDI001pr24c01       
 HD   I      1   6.25000E+02   3.87500E+03  HDI001pr24c02       
 HD   I      1   8.75000E+02   3.87500E+03  HDI001pr24c03       
 HD   I      1   1.12500E+03   3.87500E+03  HDI001pr24c04       
 HD   I      1   1.37500E+03   3.87500E+03  HDI001pr24c05       
 HD   I      1   1.62500E+03   3.87500E+03  HDI001pr24c06       
 HD   I      1   1.87500E+03   3.87500E+03  HDI001pr24c07       
 HD   I      1   2.12500E+03   3.87500E+03  HDI001pr24c08       
 HD   I      1   2.37500E+03   3.87500E+03  HDI001pr24c09       
 HD   I      1   2.62500E+03   3.87500E+03  HDI001pr24c10       
 HD   I      1   2.87500E+03   3.87500E+03  HDI001pr24c11       
 HD   I      1   3.12500E+03   3.87500E+03  HDI001pr24c12       
 HD   I      1   3.37500E+03   3.87500E+03  HDI001pr24c13       
 HD   I      1   3.62500E+03   3.87500E+03  HDI001pr24c14       
 HD   I      1   3.87500E+03   3.87500E+03  HDI001pr24c15       
 HD   I      1   4.12500E+03   3.87500E+03  HDI001pr24c16       
 HD   I      1   4.37500E+03   3.87500E+03  HDI001pr24c17       
 HD   I      1   4.62500E+03   3.87500E+03  HDI001pr24c18       
 HD   I      1   3.75000E+02   3.62500E+03  HDI001pr25c01       
 HD   I      1   6.25000E+02   3.62500E+03  HDI001pr25c02       
 HD   I      1   8.75000E+02   3.62500E+03  HDI001pr25c03       
 HD   I      1   1.12500E+03   3.62500E+03  HDI001pr25c04       
 HD   I      1   1.37500E+03   3.62500E+03  HDI001pr25c05       
 HD   I      1   1.62500E+03   3.62500E+03  HDI001pr25c06       
 HD   I      1   1.87500E+03   3.62500E+03  HDI001pr25c07       
 HD   I      1   2.12500E+03   3.62500E+03  HDI001pr25c08       
 HD   I      1   2.37500E+03   3.62500E+03  HDI001pr25c09       
 HD   I      1   2.62500E+03   3.62500E+03  HDI001pr25c10       
 HD   I      1   2.87500E+03   3.62500E+03  HDI001pr25c11       
 HD   I      1   3.12500E+03   3.62500E+03  HDI001pr25c12       
 HD   I      1   3.37500E+03   3.62500E+03  HDI001pr25c13       
 HD   I      1   3.62500E+03   3.62500E+03  HDI001pr25c14       
 HD   I      1   3.87500E+03   3.62500E+03  HDI001pr25c15       
 HD   I      1   4.12500E+03   3.62500E+03  HDI001pr25c16       
 HD   I      1   4.37500E+03   3.62500E+03  HDI001pr25c17       
 HD   I      1   4.62500E+03   3.62500E+03  HDI001pr25c18       
 HD   I      1   3.75000E+02   3.37500E+03  HDI001pr26c01       
 HD   I      1   6.25000E+02   3.37500E+03  HDI001pr26c02       
 HD   I      1   8.75000E+02   3.37500E+03  HDI001pr26c03       
 HD   I      1   1.12500E+03   3.37500E+03  HDI001pr26c04       
 HD   I      1   1.37500E+03   3.37500E+03  HDI001pr26c05       
 HD   I      1   1.62500E+03   3.37500E+03  HDI001pr26c06       
 HD   I      1   1.87500E+03   3.37500E+03  HDI001pr26c07       
 HD   I      1   2.12500E+03   3.37500E+03  HDI001pr26c08       
 HD   I      1   2.37500E+03   3.37500E+03  HDI001pr26c09       
 HD   I      1   2.62500E+03   3.37500E+03  HDI001pr26c10       
 HD   I      1   2.87500E+03   3.37500E+03  HDI001pr26c11       
 HD   I      1   3.12500E+03   3.37500E+03  HDI001pr26c12       
 HD   I      1   3.37500E+03   3.37500E+03  HDI001pr26c13       
 HD   I      1   3.62500E+03   3.37500E+03  HDI001pr26c14       
 HD   I      1   3.87500E+03   3.37500E+03  HDI001pr26c15       
 HD   I      1   4.12500E+03   3.37500E+03  HDI001pr26c16       
 HD   I      1   4.37500E+03   3.37500E+03  HDI001pr26c17       
 HD   I      1   4.62500E+03   3.37500E+03  HDI001pr26c18       
 HD   I      1   3.75000E+02   3.12500E+03  HDI001pr27c01       
 HD   I      1   6.25000E+02   3.12500E+03  HDI001pr27c02       
 HD   I      1   8.75000E+02   3.12500E+03  HDI001pr27c03       
 HD   I      1   1.12500E+03   3.12500E+03  HDI001pr27c04       
 HD   I      1   1.37500E+03   3.12500E+03  HDI001pr27c05       
 HD   I      1   1.62500E+03   3.12500E+03  HDI001pr27c06       
 HD   I      1   1.87500E+03   3.12500E+03  HDI001pr27c07       
 HD   I      1   2.12500E+03   3.12500E+03  HDI001pr27c08       
 HD   I      1   2.37500E+03   3.12500E+03  HDI001pr27c09       
 HD   I      1   2.62500E+03   3.12500E+03  HDI001pr27c10       
 HD   I      1   2.87500E+03   3.12500E+03  HDI001pr27c11       
 HD   I      1   3.12500E+03   3.12500E+03  HDI001pr27c12       
 HD   I      1   3.37500E+03   3.12500E+03  HDI001pr27c13       
 HD   I      1   3.62500E+03   3.12500E+03  HDI001pr27c14       
 HD   I      1   3.87500E+03   3.12500E+03  HDI001pr27c15       
 HD   I      1   4.12500E+03   3.12500E+03  HDI001pr27c16       
 HD   I      1   4.37500E+03   3.12500E+03  HDI001pr27c17       
 HD   I      1   4.62500E+03   3.12500E+03  HDI001pr27c18       
 HD   I      1   3.75000E+02   2.87500E+03  HDI001pr28c01       
 HD   I      1   6.25000E+02   2.87500E+03  HDI001pr28c02       
 HD   I      1   8.75000E+02   2.87500E+03  HDI001pr28c03       
 HD   I      1   1.12500E+03   2.87500E+03  HDI001pr28c04       
 HD   I      1   1.37500E+03   2.87500E+03  HDI001pr28c05       
 HD   I      1   1.62500E+03   2.87500E+03  HDI001pr28c06       
 HD   I      1   1.87500E+03   2.87500E+03  HDI001pr28c07       
 HD   I      1   2.12500E+03   2.87500E+03  HDI001pr28c08       
 HD   I      1   2.37500E+03   2.87500E+03  HDI001pr28c09       
 HD   I      1   2.62500E+03   2.87500E+03  HDI001pr28c10       
 HD   I      1   2.87500E+03   2.87500E+03  HDI001pr28c11       
 HD   I      1   3.12500E+03   2.87500E+03  HDI001pr28c12       
 HD   I      1   3.37500E+03   2.87500E+03  HDI001pr28c13       
 HD   I      1   3.62500E+03   2.87500E+03  HDI001pr28c14       
 HD   I      1   3.87500E+03   2.87500E+03  HDI001pr28c15       
 HD   I      1   4.12500E+03   2.87500E+03  HDI001pr28c16       
 HD   I      1   4.37500E+03   2.87500E+03  HDI001pr28c17       
 HD   I      1   4.62500E+03   2.87500E+03  HDI001pr28c18       
 HD   I      1   3.75000E+02   2.62500E+03  HDI001pr29c01       
 HD   I      1   6.25000E+02   2.62500E+03  HDI001pr29c02       
 HD   I      1   8.75000E+02   2.62500E+03  HDI001pr29c03       
 HD   I      1   1.12500E+03   2.62500E+03  HDI001pr29c04       
 HD   I      1   1.37500E+03   2.62500E+03  HDI001pr29c05       
 HD   I      1   1.62500E+03   2.62500E+03  HDI001pr29c06       
 HD   I      1   1.87500E+03   2.62500E+03  HDI001pr29c07       
 HD   I      1   2.12500E+03   2.62500E+03  HDI001pr29c08       
 HD   I      1   2.37500E+03   2.62500E+03  HDI001pr29c09       
 HD   I      1   2.62500E+03   2.62500E+03  HDI001pr29c10       
 HD   I      1   2.87500E+03   2.62500E+03  HDI001pr29c11       
 HD   I      1   3.12500E+03   2.62500E+03  HDI001pr29c12       
 HD   I      1   3.37500E+03   2.62500E+03  HDI001pr29c13       
 HD   I      1   3.62500E+03   2.62500E+03  HDI001pr29c14       
 HD   I      1   3.87500E+03   2.62500E+03  HDI001pr29c15       
 HD   I      1   4.12500E+03   2.62500E+03  HDI001pr29c16       
 HD   I      1   4.37500E+03   2.62500E+03  HDI001pr29c17       
 HD   I      1   4.62500E+03   2.62500E+03  HDI001pr29c18       
 HD   I      1   3.75000E+02   2.37500E+03  HDI001pr30c01       
 HD   I      1   6.25000E+02   2.37500E+03  HDI001pr30c02       
 HD   I      1   8.75000E+02   2.37500E+03  HDI001pr30c03       
 HD   I      1   1.12500E+03   2.37500E+03  HDI001pr30c04       
 HD   I      1   1.37500E+03   2.37500E+03  HDI001pr30c05       
 HD   I      1   1.62500E+03   2.37500E+03  HDI001pr30c06       
 HD   I      1   1.87500E+03   2.37500E+03  HDI001pr30c07       
 HD   I      1   2.12500E+03   2.37500E+03  HDI001pr30c08       
 HD   I      1   2.37500E+03   2.37500E+03  HDI001pr30c09       
 HD   I      1   2.62500E+03   2.37500E+03  HDI001pr30c10       
 HD   I      1   2.87500E+03   2.37500E+03  HDI001pr30c11       
 HD   I      1   3.12500E+03   2.37500E+03  HDI001pr30c12       
 HD   I      1   3.37500E+03   2.37500E+03  HDI001pr30c13       
 HD   I      1   3.62500E+03   2.37500E+03  HDI001pr30c14       
 HD   I      1   3.87500E+03   2.37500E+03  HDI001pr30c15       
 HD   I      1   4.12500E+03   2.37500E+03  HDI001pr30c16       
 HD   I      1   4.37500E+03   2.37500E+03  HDI001pr30c17       
 HD   I      1   4.62500E+03   2.37500E+03  HDI001pr30c18       
 HD   I      1   3.75000E+02   2.12500E+03  HDI001pr31c01       
 HD   I      1   6.25000E+02   2.12500E+03  HDI001pr31c02       
 HD   I      1   8.75000E+02   2.12500E+03  HDI001pr31c03       
 HD   I      1   1.12500E+03   2.12500E+03  HDI001pr31c04       
 HD   I      1   1.37500E+03   2.12500E+03  HDI001pr31c05       
 HD   I      1   1.62500E+03   2.12500E+03  HDI001pr31c06       
 HD   I      1   1.87500E+03   2.12500E+03  HDI001pr31c07       
 HD   I      1   2.12500E+03   2.12500E+03  HDI001pr31c08       
 HD   I      1   2.37500E+03   2.12500E+03  HDI001pr31c09       
 HD   I      1   2.62500E+03   2.12500E+03  HDI001pr31c10       
 HD   I      1   2.87500E+03   2.12500E+03  HDI001pr31c11       
 HD   I      1   3.12500E+03   2.12500E+03  HDI001pr31c12       
 HD   I      1   3.37500E+03   2.12500E+03  HDI001pr31c13       
 HD   I      1   3.62500E+03   2.12500E+03  HDI001pr31c14       
 HD   I      1   3.87500E+03   2.12500E+03  HDI001pr31c15       
 HD   I      1   4.12500E+03   2.12500E+03  HDI001pr31c16       
 HD   I      1   4.37500E+03   2.12500E+03  HDI001pr31c17       
 HD   I      1   4.62500E+03   2.12500E+03  HDI001pr31c18       
 HD   I      1   3.75000E+02   1.87500E+03  HDI001pr32c01       
 HD   I      1   6.25000E+02   1.87500E+03  HDI001pr32c02       
 HD   I      1   8.75000E+02   1.87500E+03  HDI001pr32c03       
 HD   I      1   1.12500E+03   1.87500E+03  HDI001pr32c04       
 HD   I      1   1.37500E+03   1.87500E+03  HDI001pr32c05       
 HD   I      1   1.62500E+03   1.87500E+03  HDI001pr32c06       
 HD   I      1   1.87500E+03   1.87500E+03  HDI001pr32c07       
 HD   I      1   2.12500E+03   1.87500E+03  HDI001pr32c08       
 HD   I      1   2.37500E+03   1.87500E+03  HDI001pr32c09       
 HD   I      1   2.62500E+03   1.87500E+03  HDI001pr32c10       
 HD   I      1   2.87500E+03   1.87500E+03  HDI001pr32c11       
 HD   I      1   3.12500E+03   1.87500E+03  HDI001pr32c12       
 HD   I      1   3.37500E+03   1.87500E+03  HDI001pr32c13       
 HD   I      1   3.62500E+03   1.87500E+03  HDI001pr32c14       
 HD   I      1   3.87500E+03   1.87500E+03  HDI001pr32c15       
 HD   I      1   4.12500E+03   1.87500E+03  HDI001pr32c16       
 HD   I      1   4.37500E+03   1.87500E+03  HDI001pr32c17       
 HD   I      1   4.62500E+03   1.87500E+03  HDI001pr32c18       
 HD   I      1   6.25000E+02   1.62500E+03  HDI001pr33c02       
 HD   I      1   8.75000E+02   1.62500E+03  HDI001pr33c03       
 HD   I      1   1.12500E+03   1.62500E+03  HDI001pr33c04       
 HD   I      1   1.37500E+03   1.62500E+03  HDI001pr33c05       
 HD   I      1   1.62500E+03   1.62500E+03  HDI001pr33c06       
 HD   I      1   1.87500E+03   1.62500E+03  HDI001pr33c07       
 HD   I      1   2.12500E+03   1.62500E+03  HDI001pr33c08       
 HD   I      1   2.37500E+03   1.62500E+03  HDI001pr33c09       
 HD   I      1   2.62500E+03   1.62500E+03  HDI001pr33c10       
 HD   I      1   2.87500E+03   1.62500E+03  HDI001pr33c11       
 HD   I      1   3.12500E+03   1.62500E+03  HDI001pr33c12       
 HD   I      1   3.37500E+03   1.62500E+03  HDI001pr33c13       
 HD   I      1   3.62500E+03   1.62500E+03  HDI001pr33c14       
 HD   I      1   3.87500E+03   1.62500E+03  HDI001pr33c15       
 HD   I      1   4.12500E+03   1.62500E+03  HDI001pr33c16       
 HD   I      1   4.37500E+03   1.62500E+03  HDI001pr33c17       
 HD   I      1   4.62500E+03   1.62500E+03  HDI001pr33c18       
 HD   I      1   8.75000E+02   1.37500E+03  HDI001pr34c03       
 HD   I      1   1.12500E+03   1.37500E+03  HDI001pr34c04       
 HD   I      1   1.37500E+03   1.37500E+03  HDI001pr34c05       
 HD   I      1   1.62500E+03   1.37500E+03  HDI001pr34c06       
 HD   I      1   1.87500E+03   1.37500E+03  HDI001pr34c07       
 HD   I      1   2.12500E+03   1.37500E+03  HDI001pr34c08       
 HD   I      1   2.37500E+03   1.37500E+03  HDI001pr34c09       
 HD   I      1   2.62500E+03   1.37500E+03  HDI001pr34c10       
 HD   I      1   2.87500E+03   1.37500E+03  HDI001pr34c11       
 HD   I      1   3.12500E+03   1.37500E+03  HDI001pr34c12       
 HD   I      1   3.37500E+03   1.37500E+03  HDI001pr34c13       
 HD   I      1   3.62500E+03   1.37500E+03  HDI001pr34c14       
 HD   I      1   3.87500E+03   1.37500E+03  HDI001pr34c15       
 HD   I      1   4.12500E+03   1.37500E+03  HDI001pr34c16       
 HD   I      1   4.37500E+03   1.37500E+03  HDI001pr34c17       
 HD   I      1   4.62500E+03   1.37500E+03  HDI001pr34c18       
 HD   I      1   1.12500E+03   1.12500E+03  HDI001pr35c04       
 HD   I      1   1.37500E+03   1.12500E+03  HDI001pr35c05       
 HD   I      1   1.62500E+03   1.12500E+03  HDI001pr35c06       
 HD   I      1   1.87500E+03   1.12500E+03  HDI001pr35c07       
 HD   I      1   2.12500E+03   1.12500E+03  HDI001pr35c08       
 HD   I      1   2.37500E+03   1.12500E+03  HDI001pr35c09       
 HD   I      1   2.62500E+03   1.12500E+03  HDI001pr35c10       
 HD   I      1   2.87500E+03   1.12500E+03  HDI001pr35c11       
 HD   I      1   3.12500E+03   1.12500E+03  HDI001pr35c12       
 HD   I      1   3.37500E+03   1.12500E+03  HDI001pr35c13       
 HD   I      1   3.62500E+03   1.12500E+03  HDI001pr35c14       
 HD   I      1   3.87500E+03   1.12500E+03  HDI001pr35c15       
 HD   I      1   4.12500E+03   1.12500E+03  HDI001pr35c16       
 HD   I      1   4.37500E+03   1.12500E+03  HDI001pr35c17       
 HD   I      1   4.62500E+03   1.12500E+03  HDI001pr35c18       
 HD   I      1   1.12500E+03   8.75000E+02  HDI001pr36c04       
 HD   I      1   1.37500E+03   8.75000E+02  HDI001pr36c05       
 HD   I      1   1.62500E+03   8.75000E+02  HDI001pr36c06       
 HD   I      1   1.87500E+03   8.75000E+02  HDI001pr36c07       
 HD   I      1   2.12500E+03   8.75000E+02  HDI001pr36c08       
 HD   I      1   2.37500E+03   8.75000E+02  HDI001pr36c09       
 HD   I      1   2.62500E+03   8.75000E+02  HDI001pr36c10       
 HD   I      1   2.87500E+03   8.75000E+02  HDI001pr36c11       
 HD   I      1   3.12500E+03   8.75000E+02  HDI001pr36c12       
 HD   I      1   3.37500E+03   8.75000E+02  HDI001pr36c13       
 HD   I      1   3.62500E+03   8.75000E+02  HDI001pr36c14       
 HD   I      1   3.87500E+03   8.75000E+02  HDI001pr36c15       
 HD   I      1   4.12500E+03   8.75000E+02  HDI001pr36c16       
 HD   I      1   4.37500E+03   8.75000E+02  HDI001pr36c17       
 HD   I      1   4.62500E+03   8.75000E+02  HDI001pr36c18       
 HD   I      1   1.37500E+03   6.25000E+02  HDI001pr37c05       
 HD   I      1   1.62500E+03   6.25000E+02  HDI001pr37c06       
 HD   I      1   1.87500E+03   6.25000E+02  HDI001pr37c07       
 HD   I      1   2.12500E+03   6.25000E+02  HDI001pr37c08       
 HD   I      1   2.37500E+03   6.25000E+02  HDI001pr37c09       
 HD   I      1   2.62500E+03   6.25000E+02  HDI001pr37c10       
 HD   I      1   2.87500E+03   6.25000E+02  HDI001pr37c11       
 HD   I      1   3.12500E+03   6.25000E+02  HDI001pr37c12       
 HD   I      1   3.37500E+03   6.25000E+02  HDI001pr37c13       
 HD   I      1   3.62500E+03   6.25000E+02  HDI001pr37c14       
 HD   I      1   3.87500E+03   6.25000E+02  HDI001pr37c15       
 HD   I      1   4.12500E+03   6.25000E+02  HDI001pr37c16       
 HD   I      1   4.37500E+03   6.25000E+02  HDI001pr37c17       
 HD   I      1   1.37500E+03   3.75000E+02  HDI001pr38c05       
 HD   I      1   1.62500E+03   3.75000E+02  HDI001pr38c06       
 HD   I      1   1.87500E+03   3.75000E+02  HDI001pr38c07       
 HD   I      1   2.12500E+03   3.75000E+02  HDI001pr38c08       
 HD   I      1   2.37500E+03   3.75000E+02  HDI001pr38c09       
 HD   I      1   2.62500E+03   3.75000E+02  HDI001pr38c10       
 HD   I      1   2.87500E+03   3.75000E+02  HDI001pr38c11       
 HD   I      1   3.12500E+03   3.75000E+02  HDI001pr38c12       
 HD   I      1   3.37500E+03   3.75000E+02  HDI001pr38c13       
 HD   I      1   3.62500E+03   3.75000E+02  HDI001pr38c14       
 HD   I      1   3.87500E+03   3.75000E+02  HDI001pr38c15       
 HD   I      1   4.12500E+03   3.75000E+02  HDI001pr38c16       

 OBS2BAS7 -- HEAD OBSERVATIONS, VERSION 2.0, 2/28/2006
 INPUT READ FROM UNIT  15
 # NH MOBS MAXM IUHOBSV HOBDRY
 #  OBSNAM LAYER ROW COLUMN IREFSP TOFFSET   ROFF   COFF   HOBS

 NUMBER OF HEADS....................................:   39
   NUMBER OF MULTILAYER HEADS.......................:    0
   MAXIMUM NUMBER OF LAYERS FOR MULTILAYER HEADS....:    0
 HEAD OBSERVATIONS WILL BE SAVED ON UNIT............:   42
 SIMULATED EQUIVALENT HEAD AT DRY CELLS WILL BE:   -999.000    

 OBSERVED HEAD DATA -- TIME OFFSETS ARE MULTIPLIED BY:   1.0000    

                    REFER.
       OBSERVATION  STRESS    TIME
  OBS#    NAME      PERIOD   OFFSET    OBSERVATION
     1 obswel1_1        1    0.000      -999.0    
 Observation within a steady-state time step has been moved to the end of the time step.
     2 obswel2_1        1    0.000      -999.0    
 Observation within a steady-state time step has been moved to the end of the time step.
     3 obswel3_1        1    0.000      -999.0    
 Observation within a steady-state time step has been moved to the end of the time step.
     4 obswel4_1        1    0.000      -999.0    
 Observation within a steady-state time step has been moved to the end of the time step.
     5 obswel5_1        1    0.000      -999.0    
 Observation within a steady-state time step has been moved to the end of the time step.
     6 obswel6_1        1    0.000      -999.0    
 Observation within a steady-state time step has been moved to the end of the time step.
     7 obswel7_1        1    0.000      -999.0    
 Observation within a steady-state time step has been moved to the end of the time step.
     8 obswel8_1        1    0.000      -999.0    
 Observation within a steady-state time step has been moved to the end of the time step.
     9 obswel9_1        1    0.000      -999.0    
 Observation within a steady-state time step has been moved to the end of the time step.
    10 obswel10_1       1    0.000      -999.0    
 Observation within a steady-state time step has been moved to the end of the time step.
    11 obswel11_1       1    0.000      -999.0    
 Observation within a steady-state time step has been moved to the end of the time step.
    12 obswel12_1       1    0.000      -999.0    
 Observation within a steady-state time step has been moved to the end of the time step.
    13 obswel13_1       1    0.000      -999.0    
 Observation within a steady-state time step has been moved to the end of the time step.
    14 obswel1_2        2    1825.      -999.0    
    15 obswel2_2        2    1825.      -999.0    
    16 obswel3_2        2    1825.      -999.0    
    17 obswel4_2        2    1825.      -999.0    
    18 obswel5_2        2    1825.      -999.0    
    19 obswel6_2        2    1825.      -999.0    
    20 obswel7_2        2    1825.      -999.0    
    21 obswel8_2        2    1825.      -999.0    
    22 obswel9_2        2    1825.      -999.0    
    23 obswel10_2       2    1825.      -999.0    
    24 obswel11_2       2    1825.      -999.0    
    25 obswel12_2       2    1825.      -999.0    
    26 obswel13_2       2    1825.      -999.0    
    27 obswel1_3        3    1.000      -999.0    
    28 obswel2_3        3    1.000      -999.0    
    29 obswel3_3        3    1.000      -999.0    
    30 obswel4_3        3    1.000      -999.0    
    31 obswel5_3        3    1.000      -999.0    
    32 obswel6_3        3    1.000      -999.0    
    33 obswel7_3        3    1.000      -999.0    
    34 obswel8_3        3    1.000      -999.0    
    35 obswel9_3        3    1.000      -999.0    
    36 obswel10_3       3    1.000      -999.0    
    37 obswel11_3       3    1.000      -999.0    
    38 obswel12_3       3    1.000      -999.0    
    39 obswel13_3       3    1.000      -999.0    

                                                     HEAD CHANGE
                                                      REFERENCE
        OBSERVATION                   ROW     COL    OBSERVATION
  OBS#     NAME       LAY  ROW  COL  OFFSET  OFFSET   (IF > 0)
     1  obswel1_1       1    4   11   0.000   0.000        0
     2  obswel2_1       1    4   17   0.000   0.000        0
     3  obswel3_1       1    5   10   0.000   0.000        0
     4  obswel4_1       1   11    3   0.000   0.000        0
     5  obswel5_1       1   15   12   0.000   0.000        0
     6  obswel6_1       1   17   18   0.000   0.000        0
     7  obswel7_1       1   23   12   0.000   0.000        0
     8  obswel8_1       1   24   17   0.000   0.000        0
     9  obswel9_1       1   26    6   0.000   0.000        0
    10  obswel10_1      1   28    8   0.000   0.000        0
    11  obswel11_1      1   31   17   0.000   0.000        0
    12  obswel12_1      1   35    9   0.000   0.000        0
    13  obswel13_1      1   36   12   0.000   0.000        0
    14  obswel1_2       1    4   11   0.000   0.000        0
    15  obswel2_2       1    4   17   0.000   0.000        0
    16  obswel3_2       1    5   10   0.000   0.000        0
    17  obswel4_2       1   11    3   0.000   0.000        0
    18  obswel5_2       1   15   12   0.000   0.000        0
    19  obswel6_2       1   17   18   0.000   0.000        0
    20  obswel7_2       1   23   12   0.000   0.000        0
    21  obswel8_2       1   24   17   0.000   0.000        0
    22  obswel9_2       1   26    6   0.000   0.000        0
    23  obswel10_2      1   28    8   0.000   0.000        0
    24  obswel11_2      1   31   17   0.000   0.000        0
    25  obswel12_2      1   35    9   0.000   0.000        0
    26  obswel13_2      1   36   12   0.000   0.000        0
    27  obswel1_3       1    4   11   0.000   0.000        0
    28  obswel2_3       1    4   17   0.000   0.000        0
    29  obswel3_3       1    5   10   0.000   0.000        0
    30  obswel4_3       1   11    3   0.000   0.000        0
    31  obswel5_3       1   15   12   0.000   0.000        0
    32  obswel6_3       1   17   18   0.000   0.000        0
    33  obswel7_3       1   23   12   0.000   0.000        0
    34  obswel8_3       1   24   17   0.000   0.000        0
    35  obswel9_3       1   26    6   0.000   0.000        0
    36  obswel10_3      1   28    8   0.000   0.000        0
    37  obswel11_3      1   31   17   0.000   0.000        0
    38  obswel12_3      1   35    9   0.000   0.000        0
    39  obswel13_3      1   36   12   0.000   0.000        0
1
                            STRESS PERIOD NO.    1, LENGTH =   1.000000    
                            -----------------------------------------------

                              NUMBER OF TIME STEPS =     1

                               MULTIPLIER FOR DELT =     1.000

                            INITIAL TIME STEP SIZE =   1.000000    

 WELL NO.  LAYER   ROW   COL   STRESS RATE         
 --------------------------------------------------
      1      1      9     16      -628.8    
      2      1     11     13      -330.9    
      3      1     20     14      -339.7    
      4      1     26     10      -66.29    
      5      1     29      6      -64.28    
      6      1     34     12      -444.3    

      6 WELLS

 REACH NO.  LAYER   ROW   COL     STAGE      CONDUCTANCE     BOTTOM EL.         
 -------------------------------------------------------------------------------
      1      1      1     15       20.19           5776.           20.00    
      2      1      2     15       19.60           3790.           19.75    
      3      1      3     15       19.89           5532.           19.50    
      4      1      4     15       19.38           6135.           19.25    
      5      1      5     15       19.28           5536.           19.00    
      6      1      6     15       19.22           3842.           18.75    
      7      1      7     15       18.90           2866.           18.50    
      8      1      8     15       18.42           4318.           18.25    
      9      1      9     15       18.10           4796.           18.00    
     10      1     10     15       18.88           4638.           17.75    
     11      1     11     15       18.01           4619.           17.50    
     12      1     12     15       17.35           5474.           17.25    
     13      1     13     15       17.33           3453.           17.00    
     14      1     14     15       17.56           6251.           16.75    
     15      1     15     15       16.76           5307.           16.50    
     16      1     16     15       16.28           6982.           16.25    
     17      1     17     15       16.41           5070.           16.00    
     18      1     18     15       15.91           4556.           15.75    
     19      1     19     15       16.06           5303.           15.50    
     20      1     20     15       16.06           4765.           15.25    
     21      1     21     15       15.52           5390.           15.00    
     22      1     22     15       15.39           2649.           14.75    
     23      1     23     15       15.16           4347.           14.50    
     24      1     24     15       15.01           5110.           14.25    
     25      1     25     15       14.90           3705.           14.00    
     26      1     26     15       14.49           3711.           13.75    
     27      1     27     15       14.17           4484.           13.50    
     28      1     28     15       14.01           4405.           13.25    
     29      1     29     15       13.73           5105.           13.00    
     30      1     30     15       13.58           5620.           12.75    
     31      1     31     15       13.32           3492.           12.50    
     32      1     32     15       13.14           5515.           12.25    
     33      1     33     15       12.85           4310.           12.00    
     34      1     34     15       12.55           6270.           11.75    
     35      1     35     15       12.22           5453.           11.50    
     36      1     36     15       12.25           4212.           11.25    
     37      1     37     15       11.85           6121.           11.00    
     38      1     38     15       11.90           6083.           10.75    
     39      1     39     15       11.48           3721.           10.50    
     40      1     40     15       11.24           5427.           10.25    

     40 RIVER REACHES

                 RECHARGE =  1.382208E-04
 
 SOLVING FOR HEAD 


    17 CALLS TO PCG ROUTINE FOR TIME STEP     1 IN STRESS PERIOD    1
   215 TOTAL ITERATIONS

 MAXIMUM HEAD CHANGE FOR EACH ITERATION (1 INDICATES THE FIRST INNER ITERATION):

    HEAD CHANGE    HEAD CHANGE    HEAD CHANGE    HEAD CHANGE    HEAD CHANGE 
   LAYER,ROW,COL  LAYER,ROW,COL  LAYER,ROW,COL  LAYER,ROW,COL  LAYER,ROW,COL
 ---------------------------------------------------------------------------
  1  -48.70      0  -35.35      0   15.92      0   7.299      0  -3.359    
   (  1, 39, 11)  (  1,  9,  4)  (  1, 32,  1)  (  1, 22,  4)  (  1, 33,  2)
  0  -1.345      0 -0.5422      0 -0.2846      0 -0.1595      0 -0.1072    
   (  1, 29,  5)  (  1, 37,  5)  (  1, 37,  5)  (  1, 19,  4)  (  1,  9,  4)
  0  0.6194E-01  0  0.3880E-01  0  0.1377E-01  0  0.7926E-02  0  0.2293E-02
   (  1,  9,  4)  (  1,  8,  5)  (  1, 32,  1)  (  1, 13,  3)  (  1, 35,  4)
  0  0.1017E-02  0 -0.5732E-03  0 -0.2869E-03  0  0.2150E-03  0 -0.6455E-04
   (  1,  3,  6)  (  1,  1,  2)  (  1, 10,  1)  (  1,  9,  4)  (  1, 10,  2)
  0 -0.3481E-04  0 -0.1116E-04  0  0.8917E-05  1  -12.97      0  -13.43    
   (  1,  8,  4)  (  1, 14,  3)  (  1, 14,  2)  (  1, 39, 12)  (  1,  9,  4)
  0  -5.603      0   2.315      0  -1.264      0 -0.4823      0 -0.2101    
   (  1,  8,  5)  (  1, 39, 11)  (  1, 33,  2)  (  1, 28,  5)  (  1, 14,  1)
  0 -0.9210E-01  0 -0.3257E-01  0 -0.2241E-01  0 -0.2162E-01  0  0.1041E-01
   (  1,  8,  4)  (  1, 23,  5)  (  1,  8,  5)  (  1,  9,  4)  (  1,  9,  1)
  0  0.3616E-02  0  0.1798E-02  0 -0.6949E-03  0  0.3937E-03  0  0.1598E-03
   (  1,  2,  8)  (  1, 13,  3)  (  1,  6,  8)  (  1, 34,  3)  (  1, 33,  6)
  0 -0.1308E-03  0  0.8813E-04  0 -0.1763E-04  0 -0.9896E-05  1   11.85    
   (  1,  9,  2)  (  1,  9,  4)  (  1,  4, 12)  (  1,  2,  1)  (  1,  9,  4)
  0  -7.992      0  -3.358      0 -0.8104      0 -0.5586      0 -0.1782    
   (  1,  9,  4)  (  1,  8,  5)  (  1,  3,  6)  (  1, 33,  2)  (  1, 28,  4)
  0 -0.8131E-01  0 -0.4316E-01  0 -0.1518E-01  0 -0.8161E-02  0 -0.5915E-02
   (  1, 23,  5)  (  1,  8,  5)  (  1, 28,  7)  (  1, 29,  3)  (  1,  9,  4)
  0  0.3618E-02  0  0.1281E-02  0  0.6333E-03  0  0.3205E-03  0  0.1361E-03
   (  1,  9,  3)  (  1, 17,  9)  (  1,  7,  9)  (  1, 21,  3)  (  1,  2,  1)
  0  0.5423E-04  0 -0.3565E-04  0  0.1988E-04  0 -0.8727E-05  1   1.554    
   (  1, 22,  8)  (  1, 13,  2)  (  1,  9,  4)  (  1,  9,  4)  (  1,  8,  5)
  0 -0.8541      0 -0.9125      0 -0.2473      0 -0.1991      0 -0.6186E-01
   (  1,  8,  5)  (  1,  9,  4)  (  1,  3,  7)  (  1, 33,  2)  (  1, 30,  5)
  0 -0.2045E-01  0 -0.1427E-01  0 -0.5521E-02  0 -0.4067E-02  0  0.1703E-02
   (  1, 37,  5)  (  1, 27,  4)  (  1, 23,  5)  (  1, 29,  3)  (  1, 10,  1)
  0 -0.1096E-02  0 -0.4972E-03  0  0.2217E-03  0  0.1181E-03  0  0.7100E-04
   (  1,  9,  4)  (  1, 33,  2)  (  1, 20,  9)  (  1, 20,  3)  (  1,  4,  5)
  0  0.2193E-04  0 -0.1278E-04  0 -0.4549E-05  1 -0.6328      0  0.7819    
   (  1, 17,  4)  (  1,  6, 10)  (  1,  3, 12)  (  1,  9,  4)  (  1,  9,  4)
  0 -0.1490      0 -0.1604      0 -0.7048E-01  0 -0.2451E-01  0 -0.1579E-01
   (  1, 27,  9)  (  1,  8,  5)  (  1, 32,  1)  (  1, 20,  3)  (  1, 31,  5)
  0 -0.4752E-02  0 -0.2626E-02  0 -0.1049E-02  0  0.6046E-03  0  0.4464E-03
   (  1, 37,  5)  (  1, 29,  7)  (  1, 34,  6)  (  1, 13,  1)  (  1,  9,  4)
  0 -0.4166E-03  0  0.9387E-04  0 -0.3571E-04  0  0.3153E-04  0 -0.9680E-05
   (  1, 13,  2)  (  1, 12,  2)  (  1,  6,  8)  (  1,  4,  5)  (  1,  5,  5)
  1  -1.221      0  0.3113      0 -0.1586      0 -0.1958      0 -0.4295E-01
   (  1,  2, 15)  (  1,  9,  4)  (  1,  3, 10)  (  1,  8,  5)  (  1, 32,  1)
  0 -0.1785E-01  0 -0.9176E-02  0  0.5015E-02  0 -0.1803E-02  0  0.1310E-02
   (  1, 20,  2)  (  1, 31,  6)  (  1, 29,  4)  (  1, 31,  9)  (  1,  9,  1)
  0 -0.1311E-02  0 -0.6655E-03  0 -0.2790E-03  0 -0.1435E-03  0  0.7662E-04
   (  1,  9,  4)  (  1, 24,  3)  (  1, 33,  2)  (  1,  4,  6)  (  1, 15,  2)
  0 -0.3050E-04  0  0.1201E-04  0  0.8723E-05  1 -0.4421      0 -0.9584E-01
   (  1, 17,  4)  (  1, 16,  3)  (  1,  9,  4)  (  1,  2, 15)  (  1,  9,  4)
  0  0.5088E-01  0  0.1962E-01  0 -0.1469E-01  0 -0.6123E-02  0  0.2991E-02
   (  1,  9,  4)  (  1,  8,  5)  (  1,  5,  1)  (  1, 31,  6)  (  1, 29,  3)
  0 -0.1804E-02  0  0.7770E-03  0 -0.3748E-03  0 -0.1868E-03  0 -0.1450E-03
   (  1,  8,  4)  (  1, 25,  3)  (  1, 25,  4)  (  1, 34,  3)  (  1,  9,  4)
  0  0.9286E-04  0 -0.3057E-04  0  0.2477E-04  0 -0.7752E-05  1 -0.1582    
   (  1,  9,  4)  (  1,  4,  6)  (  1,  6,  7)  (  1,  5,  5)  (  1,  2, 15)
  0  0.2635E-01  0 -0.1916E-01  0 -0.1141E-01  0 -0.4537E-02  0 -0.2310E-02
   (  1,  9,  4)  (  1,  9,  4)  (  1,  5,  2)  (  1, 33,  2)  (  1, 19,  1)
  0  0.8351E-03  0  0.6261E-03  0 -0.4296E-03  0  0.1567E-03  0  0.1186E-03
   (  1, 30,  4)  (  1, 18,  2)  (  1,  8,  5)  (  1,  8,  5)  (  1,  9,  4)
  0 -0.6095E-04  0 -0.2844E-04  0 -0.1231E-04  0  0.9013E-05  1 -0.5669E-01
   (  1,  9,  4)  (  1, 29,  9)  (  1,  3,  1)  (  1, 14,  2)  (  1,  2, 15)
  0  0.1063E-01  0  0.7025E-02  0 -0.7288E-02  0 -0.2051E-02  0 -0.1006E-02
   (  1,  9,  4)  (  1,  8,  5)  (  1,  8,  5)  (  1,  4,  7)  (  1, 18,  1)
  0 -0.2805E-03  0  0.2480E-03  0 -0.9703E-04  0 -0.4667E-04  0  0.4835E-04
   (  1, 27,  3)  (  1, 31,  6)  (  1,  4, 13)  (  1,  9,  4)  (  1,  9,  4)
  0  0.2443E-04  0 -0.1128E-04  0 -0.6153E-05  1 -0.2049E-01  0  0.4839E-02
   (  1,  8,  5)  (  1, 31,  3)  (  1, 16,  2)  (  1,  2, 15)  (  1,  9,  4)
  0  0.2767E-02  0 -0.2629E-02  0 -0.9650E-03  0 -0.3307E-03  0 -0.1607E-03
   (  1,  8,  5)  (  1,  8,  5)  (  1,  4,  7)  (  1, 18,  1)  (  1, 29,  4)
  0  0.7714E-04  0 -0.4082E-04  0  0.2029E-04  0  0.1802E-04  0 -0.1208E-04
   (  1, 30,  6)  (  1,  1, 20)  (  1, 25,  3)  (  1,  9,  4)  (  1,  9,  4)
  0  0.3893E-05  1 -0.7442E-02  0  0.1542E-02  0  0.9460E-03  0 -0.1023E-02
   (  1, 13, 10)  (  1,  2, 15)  (  1,  8,  5)  (  1,  9,  4)  (  1,  9,  4)
  0 -0.3836E-03  0 -0.1053E-03  0 -0.6317E-04  0  0.2837E-04  0 -0.1492E-04
   (  1,  4,  7)  (  1, 18,  1)  (  1, 29,  4)  (  1,  3,  9)  (  1,  1, 20)
  0  0.8597E-05  1 -0.2703E-02  0  0.3129E-03  0  0.6030E-03  0 -0.2980E-03
   (  1, 25,  3)  (  1,  2, 15)  (  1,  8,  5)  (  1,  9,  4)  (  1,  8,  4)
  0 -0.1340E-03  0 -0.3987E-04  0 -0.2261E-04  0  0.9563E-05  1 -0.9826E-03
   (  1,  4,  7)  (  1,  4, 11)  (  1, 28,  4)  (  1, 30,  6)  (  1,  2, 15)
  0 -0.1271E-03  0  0.1976E-03  0 -0.1068E-03  0 -0.4392E-04  0 -0.1357E-04
   (  1,  9,  4)  (  1,  9,  4)  (  1,  8,  4)  (  1,  4,  8)  (  1,  4, 11)
  0  0.5955E-05  1 -0.3579E-03  0 -0.5040E-04  0  0.6310E-04  0 -0.2866E-04
   (  1,  8,  5)  (  1,  2, 15)  (  1,  9,  4)  (  1,  9,  4)  (  1,  3, 14)
  0 -0.1863E-04  0 -0.5737E-05  1 -0.1306E-03  0 -0.1839E-04  0  0.2218E-04
   (  1,  4,  8)  (  1,  4, 11)  (  1,  2, 15)  (  1,  9,  4)  (  1,  9,  4)
  0 -0.1272E-04  0 -0.4917E-05  1 -0.4613E-04  0  0.6363E-05  1  0.8862E-05
   (  1,  3, 14)  (  1,  4,  7)  (  1,  2, 15)  (  1,  8,  5)  (  1,  9,  4)

 MAXIMUM RESIDUAL FOR EACH ITERATION (1 INDICATES THE FIRST INNER ITERATION):

    RESIDUAL       RESIDUAL       RESIDUAL       RESIDUAL       RESIDUAL    
   LAYER,ROW,COL  LAYER,ROW,COL  LAYER,ROW,COL  LAYER,ROW,COL  LAYER,ROW,COL
 ---------------------------------------------------------------------------
  1  -3894.      0  -3105.      0  -1352.      0  -632.0      0  -486.5    
   (  1, 39, 12)  (  1, 39, 13)  (  1, 39,  9)  (  1, 39, 15)  (  1, 39, 15)
  0  -358.7      0  -255.2      0  -155.3      0  -83.62      0  -48.50    
   (  1, 39, 15)  (  1, 39, 15)  (  1, 39, 15)  (  1, 39, 15)  (  1, 39, 15)
  0  -38.96      0  -21.88      0  -9.118      0  -3.245      0  -1.083    
   (  1, 39, 15)  (  1, 39, 15)  (  1, 39, 15)  (  1, 39, 15)  (  1, 39, 15)
  0 -0.3663      0 -0.1153      0 -0.4692E-01  0 -0.3959E-01  0 -0.1975E-01
   (  1, 39, 15)  (  1, 39, 15)  (  1, 38, 15)  (  1, 38, 15)  (  1, 38, 15)
  0 -0.9377E-02  0 -0.4188E-02  0 -0.1770E-02  1  -783.8      0  -701.9    
   (  1, 38, 15)  (  1, 38, 15)  (  1, 38, 15)  (  1, 39, 12)  (  1, 39, 12)
  0  -346.4      0  -138.3      0  -107.9      0  -79.82      0  -56.53    
   (  1, 39, 14)  (  1, 39, 15)  (  1, 39, 15)  (  1, 39, 15)  (  1, 39, 15)
  0  -35.13      0  -21.98      0  -13.69      0  -11.53      0  -5.898    
   (  1, 39, 15)  (  1, 39, 15)  (  1, 39, 15)  (  1, 39, 15)  (  1, 39, 15)
  0  -2.487      0  -1.037      0 -0.4186      0 -0.1581      0 -0.4971E-01
   (  1, 39, 15)  (  1, 39, 15)  (  1, 39, 15)  (  1, 39, 15)  (  1, 39, 15)
  0 -0.3024E-01  0 -0.1408E-01  0 -0.5338E-02  0 -0.2263E-02  1   381.8    
   (  1, 39, 15)  (  1, 39, 15)  (  1, 38, 15)  (  1, 38, 15)  (  1, 38, 15)
  0  -148.7      0  -101.8      0  -38.95      0  -23.38      0  -18.14    
   (  1, 39, 12)  (  1, 39, 12)  (  1, 39, 14)  (  1, 39, 15)  (  1, 39, 15)
  0  -12.89      0  -7.854      0  -4.970      0  -3.237      0  -2.796    
   (  1, 39, 15)  (  1, 39, 15)  (  1, 39, 15)  (  1, 39, 15)  (  1, 39, 15)
  0  -1.540      0 -0.7901      0 -0.3941      0 -0.1769      0 -0.7154E-01
   (  1, 39, 15)  (  1, 39, 15)  (  1, 39, 15)  (  1, 39, 15)  (  1, 39, 15)
  0 -0.2465E-01  0 -0.1081E-01  0 -0.8859E-02  0 -0.3420E-02  1   57.22    
   (  1, 39, 15)  (  1, 39, 15)  (  1, 39, 15)  (  1, 39, 15)  (  1, 38, 15)
  0   35.54      0  -24.27      0  -11.85      0  -5.824      0  -4.318    
   (  1, 38, 15)  (  1, 34, 12)  (  1, 39, 14)  (  1, 39, 15)  (  1, 39, 15)
  0  -3.220      0  -2.135      0  -1.402      0 -0.9166      0 -0.5348    
   (  1, 39, 15)  (  1, 39, 15)  (  1, 39, 15)  (  1, 39, 15)  (  1, 39, 15)
  0 -0.4650      0 -0.2613      0 -0.1328      0 -0.6830E-01  0 -0.3228E-01
   (  1, 39, 15)  (  1, 39, 15)  (  1, 39, 15)  (  1, 39, 15)  (  1, 39, 15)
  0 -0.1373E-01  0 -0.6205E-02  0 -0.2293E-02  1   53.82      0   19.36    
   (  1, 39, 15)  (  1, 39, 15)  (  1, 39, 15)  (  1, 38, 15)  (  1, 38, 15)
  0  -9.751      0  -3.540      0  -1.628      0  -1.242      0 -0.9178    
   (  1, 34, 12)  (  1, 20, 14)  (  1, 39, 14)  (  1, 39, 15)  (  1, 39, 15)
  0 -0.6090      0 -0.4114      0 -0.2722      0 -0.1558      0 -0.1169    
   (  1, 39, 15)  (  1, 39, 15)  (  1, 39, 15)  (  1, 39, 15)  (  1, 39, 15)
  0 -0.7731E-01  0 -0.3849E-01  0 -0.2101E-01  0 -0.1033E-01  0 -0.4569E-02
   (  1, 39, 15)  (  1, 39, 15)  (  1, 39, 15)  (  1, 39, 15)  (  1, 39, 15)
  1   66.20      0   56.90      0   27.17      0   13.08      0   6.345    
   (  1, 37, 15)  (  1,  1, 15)  (  1,  1, 15)  (  1,  3, 14)  (  1,  3, 15)
  0   3.062      0  -1.731      0  0.9816      0  0.4606      0  0.2449    
   (  1,  3, 15)  (  1,  3, 13)  (  1,  4, 13)  (  1,  4, 13)  (  1,  4, 13)
  0  0.1748      0 -0.8541E-01  0  0.4675E-01  0  0.2000E-01  0  0.7273E-02
   (  1,  4, 13)  (  1,  4, 12)  (  1,  5, 12)  (  1,  5, 12)  (  1,  5, 12)
  0 -0.2998E-02  0  0.1579E-02  0  0.1124E-02  1   19.81      0   10.46    
   (  1,  5, 11)  (  1,  6, 11)  (  1,  6, 11)  (  1, 37, 15)  (  1,  3, 14)
  0   7.570      0   3.874      0   1.963      0  0.8954      0  0.5533    
   (  1,  3, 14)  (  1,  3, 14)  (  1,  3, 15)  (  1,  3, 15)  (  1,  4, 13)
  0  0.3325      0  0.1331      0 -0.5517E-01  0  0.3164E-01  0  0.2717E-01
   (  1,  4, 13)  (  1,  4, 13)  (  1,  4, 12)  (  1,  5, 12)  (  1,  5, 12)
  0  0.1437E-01  0  0.6465E-02  0 -0.1895E-02  0  0.1077E-02  1   6.572    
   (  1,  5, 12)  (  1,  5, 12)  (  1,  5, 11)  (  1,  6, 11)  (  1, 37, 15)
  0   5.408      0   2.953      0   1.374      0  0.6643      0  0.3045    
   (  1,  3, 14)  (  1,  3, 14)  (  1,  3, 14)  (  1,  3, 15)  (  1,  3, 15)
  0  0.1986      0  0.1236      0  0.4857E-01  0 -0.1848E-01  0 -0.1537E-01
   (  1,  4, 13)  (  1,  4, 13)  (  1,  4, 13)  (  1,  4, 12)  (  1,  4, 12)
  0  0.1013E-01  0  0.6155E-02  0  0.2713E-02  0  0.9001E-03  1   2.436    
   (  1,  5, 12)  (  1,  5, 12)  (  1,  5, 12)  (  1,  5, 12)  (  1,  3, 14)
  0   2.249      0   1.377      0  0.6474      0  0.2519      0  0.1174    
   (  1,  3, 14)  (  1,  3, 14)  (  1,  3, 14)  (  1,  3, 14)  (  1,  4, 13)
  0  0.8576E-01  0  0.5187E-01  0  0.1958E-01  0  0.8432E-02  0 -0.6520E-02
   (  1,  4, 13)  (  1,  4, 13)  (  1,  4, 13)  (  1,  4, 13)  (  1,  4, 12)
  0  0.4031E-02  0  0.2548E-02  0  0.1170E-02  1  0.9295      0  0.8063    
   (  1,  5, 12)  (  1,  5, 12)  (  1,  5, 12)  (  1,  3, 14)  (  1,  3, 14)
  0  0.5790      0  0.2644      0  0.1002      0  0.4580E-01  0  0.3549E-01
   (  1,  3, 14)  (  1,  3, 14)  (  1,  3, 14)  (  1,  4, 13)  (  1,  4, 13)
  0  0.2088E-01  0  0.8162E-02  0  0.3661E-02  0 -0.2355E-02  0 -0.1619E-02
   (  1,  4, 13)  (  1,  4, 13)  (  1,  4, 13)  (  1,  4, 12)  (  1,  4, 12)
  0  0.9335E-03  1  0.3533      0  0.2639      0  0.2140      0  0.1025    
   (  1,  5, 12)  (  1,  3, 14)  (  1,  3, 14)  (  1,  3, 14)  (  1,  3, 14)
  0  0.3792E-01  0  0.1760E-01  0  0.1350E-01  0  0.7953E-02  0  0.3246E-02
   (  1,  3, 14)  (  1,  4, 13)  (  1,  4, 13)  (  1,  4, 13)  (  1,  4, 13)
  0  0.1358E-02  1  0.1333      0  0.1214      0  0.8068E-01  0  0.3728E-01
   (  1,  4, 13)  (  1,  3, 14)  (  1,  3, 14)  (  1,  3, 14)  (  1,  3, 14)
  0  0.1399E-01  0  0.6710E-02  0  0.4918E-02  0  0.2930E-02  1  0.5032E-01
   (  1,  3, 14)  (  1,  4, 13)  (  1,  4, 13)  (  1,  4, 13)  (  1,  3, 14)
  0  0.4749E-01  0  0.2869E-01  0  0.1220E-01  0  0.4617E-02  0  0.2446E-02
   (  1,  3, 14)  (  1,  3, 14)  (  1,  3, 14)  (  1,  3, 14)  (  1,  4, 13)
  0  0.1560E-02  1  0.1891E-01  0  0.1794E-01  0  0.1131E-01  0  0.5603E-02
   (  1,  4, 13)  (  1,  3, 14)  (  1,  3, 14)  (  1,  3, 14)  (  1,  3, 14)
  0  0.1715E-02  0  0.9032E-03  1  0.7096E-02  0  0.6693E-02  0  0.4297E-02
   (  1,  3, 14)  (  1,  4, 13)  (  1,  3, 14)  (  1,  3, 14)  (  1,  3, 14)
  0  0.1721E-02  0  0.7260E-03  1  0.2717E-02  0  0.2412E-02  1  0.5136E-02
   (  1,  3, 14)  (  1,  3, 14)  (  1,  3, 14)  (  1,  3, 14)  (  1,  2, 15)



 OUTPUT CONTROL FOR STRESS PERIOD    1   TIME STEP    1
    SAVE HEAD FOR ALL LAYERS
    SAVE BUDGET
 UBDSV2 SAVING "   CONSTANT HEAD" ON UNIT  53 AT TIME STEP     1, STRESS PERIOD   1
 UBDSV1 SAVING "FLOW RIGHT FACE " ON UNIT  53 AT TIME STEP     1, STRESS PERIOD   1
 UBDSV1 SAVING "FLOW FRONT FACE " ON UNIT  53 AT TIME STEP     1, STRESS PERIOD   1

 HEAD WILL BE SAVED ON UNIT   51 AT END OF TIME STEP    1, STRESS PERIOD    1
1
  VOLUMETRIC BUDGET FOR ENTIRE MODEL AT END OF TIME STEP    1, STRESS PERIOD   1
  ------------------------------------------------------------------------------

     CUMULATIVE VOLUMES      L**3       RATES FOR THIS TIME STEP      L**3/T
     ------------------                 ------------------------

           IN:                                      IN:
           ---                                      ---
             STORAGE =           0.0000               STORAGE =           0.0000
       CONSTANT HEAD =           0.0000         CONSTANT HEAD =           0.0000
               WELLS =           0.0000                 WELLS =           0.0000
       RIVER LEAKAGE =         456.5900         RIVER LEAKAGE =         456.5900
            RECHARGE =        6003.9658              RECHARGE =        6003.9658

            TOTAL IN =        6460.5557              TOTAL IN =        6460.5557

          OUT:                                     OUT:
          ----                                     ----
             STORAGE =           0.0000               STORAGE =           0.0000
       CONSTANT HEAD =         309.1788         CONSTANT HEAD =         309.1788
               WELLS =        1874.3583                 WELLS =        1874.3583
       RIVER LEAKAGE =        4277.0586         RIVER LEAKAGE =        4277.0586
            RECHARGE =           0.0000              RECHARGE =           0.0000

           TOTAL OUT =        6460.5957             TOTAL OUT =        6460.5957

            IN - OUT =      -4.0039E-02              IN - OUT =      -4.0039E-02

 PERCENT DISCREPANCY =          -0.00     PERCENT DISCREPANCY =          -0.00






         TIME SUMMARY AT END OF TIME STEP    1 IN STRESS PERIOD    1
                    SECONDS     MINUTES      HOURS       DAYS        YEARS
                    -----------------------------------------------------------
   TIME STEP LENGTH  86400.      1440.0      24.000      1.0000     2.73785E-03
 STRESS PERIOD TIME  86400.      1440.0      24.000      1.0000     2.73785E-03
         TOTAL TIME  86400.      1440.0      24.000      1.0000     2.73785E-03
1
 A TOTAL OF 640 HYDROGRAPH POINTS HAVE BEEN PREPARED.
1
                            STRESS PERIOD NO.    2, LENGTH =   1825.000    
                            -----------------------------------------------

                              NUMBER OF TIME STEPS =     1

                               MULTIPLIER FOR DELT =     1.000

                            INITIAL TIME STEP SIZE =   1825.000    

 WELL NO.  LAYER   ROW   COL   STRESS RATE         
 --------------------------------------------------
      1      1      9     16      -841.8    
      2      1     11     13      -456.2    
      3      1     20     14      -363.5    
      4      1     26     10      -96.74    
      5      1     29      6      -66.48    
      6      1     34     12      -493.4    

      6 WELLS

 REACH NO.  LAYER   ROW   COL     STAGE      CONDUCTANCE     BOTTOM EL.         
 -------------------------------------------------------------------------------
      1      1      1     15       20.29           6513.           20.00    
      2      1      2     15       19.81           4438.           19.75    
      3      1      3     15       20.10           6156.           19.50    
      4      1      4     15       19.37           5410.           19.25    
      5      1      5     15       19.21           6028.           19.00    
      6      1      6     15       18.97           5313.           18.75    
      7      1      7     15       18.81           3846.           18.50    
      8      1      8     15       18.43           5831.           18.25    
      9      1      9     15       18.58           4497.           18.00    
     10      1     10     15       19.07           4282.           17.75    
     11      1     11     15       17.64           5710.           17.50    
     12      1     12     15       17.46           3483.           17.25    
     13      1     13     15       17.53           4368.           17.00    
     14      1     14     15       17.35           4593.           16.75    
     15      1     15     15       16.87           5063.           16.50    
     16      1     16     15       16.89           2612.           16.25    
     17      1     17     15       16.31           4018.           16.00    
     18      1     18     15       16.11           5095.           15.75    
     19      1     19     15       16.09           5867.           15.50    
     20      1     20     15       15.61           2969.           15.25    
     21      1     21     15       15.30           2970.           15.00    
     22      1     22     15       15.28           4680.           14.75    
     23      1     23     15       15.05           4085.           14.50    
     24      1     24     15       15.21           4238.           14.25    
     25      1     25     15       14.74           5667.           14.00    
     26      1     26     15       14.44           4505.           13.75    
     27      1     27     15       14.35           4536.           13.50    
     28      1     28     15       13.63           4374.           13.25    
     29      1     29     15       13.78           5304.           13.00    
     30      1     30     15       13.71           4737.           12.75    
     31      1     31     15       13.39           4671.           12.50    
     32      1     32     15       12.99           4225.           12.25    
     33      1     33     15       12.89           3323.           12.00    
     34      1     34     15       12.53           3788.           11.75    
     35      1     35     15       12.32           3981.           11.50    
     36      1     36     15       12.11           6059.           11.25    
     37      1     37     15       11.89           5024.           11.00    
     38      1     38     15       11.64           4588.           10.75    
     39      1     39     15       11.37           3807.           10.50    
     40      1     40     15       11.57           3644.           10.25    

     40 RIVER REACHES

                 RECHARGE =  9.358508E-05
 
 SOLVING FOR HEAD 


    14 CALLS TO PCG ROUTINE FOR TIME STEP     1 IN STRESS PERIOD    2
    68 TOTAL ITERATIONS

 MAXIMUM HEAD CHANGE FOR EACH ITERATION (1 INDICATES THE FIRST INNER ITERATION):

    HEAD CHANGE    HEAD CHANGE    HEAD CHANGE    HEAD CHANGE    HEAD CHANGE 
   LAYER,ROW,COL  LAYER,ROW,COL  LAYER,ROW,COL  LAYER,ROW,COL  LAYER,ROW,COL
 ---------------------------------------------------------------------------
  1   2.864      0 -0.2687      0 -0.6737E-01  0 -0.9597E-02  0  0.2427E-02
   (  1,  2, 15)  (  1,  2, 14)  (  1,  1, 20)  (  1,  3,  8)  (  1,  1, 20)
  0 -0.4628E-03  0  0.2504E-03  0 -0.5659E-04  0 -0.1322E-04  0 -0.3048E-05
   (  1,  9,  4)  (  1,  9,  4)  (  1,  9,  4)  (  1,  8,  5)  (  1,  1, 20)
  1 -0.4635      0  0.8427E-01  0 -0.1171E-01  0 -0.2079E-02  0  0.4526E-03
   (  1,  2, 15)  (  1, 11, 13)  (  1,  3, 14)  (  1,  4, 12)  (  1,  8,  5)
  0 -0.1949E-03  0 -0.6506E-04  0 -0.9618E-05  1 -0.1389      0  0.2972E-01
   (  1,  8,  5)  (  1,  9,  4)  (  1,  8,  5)  (  1,  2, 15)  (  1, 11, 13)
  0  0.3555E-02  0 -0.6425E-03  0 -0.2068E-03  0  0.7532E-04  0 -0.1924E-04
   (  1, 12, 10)  (  1,  4, 12)  (  1,  9,  4)  (  1,  9,  4)  (  1,  9,  4)
  0 -0.2933E-05  1 -0.5405E-01  0  0.1038E-01  0  0.1186E-02  0  0.2431E-03
   (  1,  5, 12)  (  1,  9, 16)  (  1, 11, 13)  (  1, 12, 10)  (  1,  9, 16)
  0 -0.8145E-04  0  0.2634E-04  0 -0.6060E-05  1 -0.2266E-01  0  0.3579E-02
   (  1,  9,  4)  (  1,  9,  4)  (  1,  9,  4)  (  1,  9, 16)  (  1, 11, 13)
  0  0.4018E-03  0  0.1030E-03  0 -0.2922E-04  0  0.9272E-05  1 -0.9445E-02
   (  1, 12, 10)  (  1,  9, 16)  (  1,  9,  4)  (  1,  9,  4)  (  1,  9, 16)
  0  0.1214E-02  0 -0.1692E-03  0  0.4045E-04  0 -0.1042E-04  0  0.3338E-05
   (  1, 11, 13)  (  1,  8, 17)  (  1,  9, 16)  (  1,  9,  4)  (  1,  9,  4)
  1 -0.3918E-02  0  0.4065E-03  0 -0.7257E-04  0  0.1466E-04  0 -0.3574E-05
   (  1,  9, 16)  (  1, 11, 13)  (  1,  8, 17)  (  1,  9, 16)  (  1,  9,  4)
  1 -0.1621E-02  0  0.1410E-03  0 -0.3060E-04  0  0.4887E-05  1 -0.6717E-03
   (  1,  9, 16)  (  1, 34, 12)  (  1,  8, 17)  (  1,  9, 16)  (  1,  9, 16)
  0  0.5036E-04  0 -0.1258E-04  0 -0.1606E-05  1 -0.2794E-03  0 -0.2083E-04
   (  1, 34, 12)  (  1,  8, 17)  (  1,  6, 20)  (  1,  9, 16)  (  1,  8, 17)
  0 -0.5047E-05  1 -0.1163E-03  0 -0.9117E-05  1 -0.4835E-04  0 -0.3498E-05
   (  1,  8, 17)  (  1,  9, 16)  (  1,  8, 17)  (  1,  9, 16)  (  1,  8, 17)
  1 -0.2011E-04  0 -0.1311E-05  1 -0.8228E-05
   (  1,  9, 16)  (  1,  8, 17)  (  1,  9, 16)

 MAXIMUM RESIDUAL FOR EACH ITERATION (1 INDICATES THE FIRST INNER ITERATION):

    RESIDUAL       RESIDUAL       RESIDUAL       RESIDUAL       RESIDUAL    
   LAYER,ROW,COL  LAYER,ROW,COL  LAYER,ROW,COL  LAYER,ROW,COL  LAYER,ROW,COL
 ---------------------------------------------------------------------------
  1   145.3      0   20.43      0   3.756      0 -0.8843      0  0.1961    
   (  1, 11, 15)  (  1, 11, 15)  (  1,  3, 13)  (  1,  4, 13)  (  1,  4, 12)
  0 -0.5752E-01  0 -0.1566E-01  0  0.3901E-02  0 -0.1113E-02  0  0.1801E-03
   (  1,  5, 12)  (  1,  5, 12)  (  1,  5, 11)  (  1,  6, 11)  (  1,  6, 10)
  1   24.78      0   4.849      0  0.7653      0  0.2561      0  0.6885E-01
   (  1,  2, 15)  (  1,  3, 14)  (  1,  3, 14)  (  1,  4, 13)  (  1,  4, 13)
  0  0.1491E-01  0  0.5341E-02  0  0.1073E-02  1   9.862      0   1.458    
   (  1,  5, 12)  (  1,  5, 12)  (  1,  5, 12)  (  1,  2, 15)  (  1,  3, 14)
  0  0.2490      0  0.7783E-01  0  0.2349E-01  0  0.4662E-02  0  0.1651E-02
   (  1,  3, 14)  (  1,  4, 13)  (  1,  4, 13)  (  1,  5, 12)  (  1,  5, 12)
  0  0.3480E-03  1   4.154      0  0.5612      0  0.8816E-01  0  0.2362E-01
   (  1,  5, 12)  (  1,  2, 15)  (  1,  2, 15)  (  1,  2, 15)  (  1,  4, 13)
  0  0.7407E-02  0  0.1479E-02  0  0.5040E-03  1   1.789      0  0.2622    
   (  1,  4, 13)  (  1,  4, 13)  (  1,  5, 12)  (  1,  2, 15)  (  1,  2, 15)
  0  0.4444E-01  0  0.7765E-02  0  0.2206E-02  0  0.4534E-03  1  0.7600    
   (  1,  2, 15)  (  1,  2, 15)  (  1,  4, 13)  (  1,  4, 13)  (  1,  2, 15)
  0  0.1225      0  0.2214E-01  0  0.4026E-02  0  0.9313E-03  0  0.2103E-03
   (  1,  2, 15)  (  1,  2, 15)  (  1,  2, 15)  (  1,  2, 15)  (  1,  2, 15)
  1  0.3081      0  0.5497E-01  0  0.1047E-01  0  0.1952E-02  0  0.4599E-03
   (  1,  2, 15)  (  1,  2, 15)  (  1,  2, 15)  (  1,  2, 15)  (  1,  2, 15)
  1  0.1164      0  0.2288E-01  0  0.4540E-02  0  0.8435E-03  1  0.4069E-01
   (  1,  2, 15)  (  1,  2, 15)  (  1,  2, 15)  (  1,  2, 15)  (  1,  2, 15)
  0  0.8674E-02  0  0.1828E-02  0  0.3644E-03  1  0.1328E-01  0  0.2989E-02
   (  1,  2, 15)  (  1,  2, 15)  (  1,  2, 15)  (  1,  2, 15)  (  1,  2, 15)
  0  0.6664E-03  1  0.4182E-02  0  0.9199E-03  1  0.1329E-02  0  0.3496E-03
   (  1,  2, 15)  (  1,  2, 15)  (  1,  2, 15)  (  1,  2, 15)  (  1,  2, 15)
  1  0.4224E-03  0  0.1488E-03  1  0.1611E-03
   (  1,  2, 15)  (  1,  8, 17)  (  1,  8, 17)



 OUTPUT CONTROL FOR STRESS PERIOD    2   TIME STEP    1
    SAVE HEAD FOR ALL LAYERS
    SAVE BUDGET
 UBDSV1 SAVING "         STORAGE" ON UNIT  53 AT TIME STEP     1, STRESS PERIOD   2
 UBDSV2 SAVING "   CONSTANT HEAD" ON UNIT  53 AT TIME STEP     1, STRESS PERIOD   2
 UBDSV1 SAVING "FLOW RIGHT FACE " ON UNIT  53 AT TIME STEP     1, STRESS PERIOD   2
 UBDSV1 SAVING "FLOW FRONT FACE " ON UNIT  53 AT TIME STEP     1, STRESS PERIOD   2

 HEAD WILL BE SAVED ON UNIT   51 AT END OF TIME STEP    1, STRESS PERIOD    2
1
  VOLUMETRIC BUDGET FOR ENTIRE MODEL AT END OF TIME STEP    1, STRESS PERIOD   2
  ------------------------------------------------------------------------------

     CUMULATIVE VOLUMES      L**3       RATES FOR THIS TIME STEP      L**3/T
     ------------------                 ------------------------

           IN:                                      IN:
           ---                                      ---
             STORAGE =     2586430.7500               STORAGE =        1417.2223
       CONSTANT HEAD =         329.7442         CONSTANT HEAD =           0.1807
               WELLS =           0.0000                 WELLS =           0.0000
       RIVER LEAKAGE =      869134.0000         RIVER LEAKAGE =         475.9876
            RECHARGE =     7424815.0000              RECHARGE =        4065.1018

            TOTAL IN =    10880710.0000              TOTAL IN =        5958.4922

          OUT:                                     OUT:
          ----                                     ----
             STORAGE =      117199.2344               STORAGE =          64.2188
       CONSTANT HEAD =      443242.4062         CONSTANT HEAD =         242.7031
               WELLS =     4232474.5000                 WELLS =        2318.1370
       RIVER LEAKAGE =     6087795.5000         RIVER LEAKAGE =        3333.4348
            RECHARGE =           0.0000              RECHARGE =           0.0000

           TOTAL OUT =    10880712.0000             TOTAL OUT =        5958.4937

            IN - OUT =          -2.0000              IN - OUT =      -1.4648E-03

 PERCENT DISCREPANCY =          -0.00     PERCENT DISCREPANCY =          -0.00






         TIME SUMMARY AT END OF TIME STEP    1 IN STRESS PERIOD    2
                    SECONDS     MINUTES      HOURS       DAYS        YEARS
                    -----------------------------------------------------------
   TIME STEP LENGTH 1.57680E+08 2.62800E+06  43800.      1825.0      4.9966    
 STRESS PERIOD TIME 1.57680E+08 2.62800E+06  43800.      1825.0      4.9966    
         TOTAL TIME 1.57766E+08 2.62944E+06  43824.      1826.0      4.9993    
1
1
                            STRESS PERIOD NO.    3, LENGTH =   1.000000    
                            -----------------------------------------------

                              NUMBER OF TIME STEPS =     1

                               MULTIPLIER FOR DELT =     1.000

                            INITIAL TIME STEP SIZE =   1.000000    

 WELL NO.  LAYER   ROW   COL   STRESS RATE         
 --------------------------------------------------
      1      1      9     16      -866.8    
      2      1     11     13      -425.7    
      3      1     20     14      -437.3    
      4      1     26     10      -83.07    
      5      1     29      6      -72.97    
      6      1     34     12      -441.3    

      6 WELLS

 REACH NO.  LAYER   ROW   COL     STAGE      CONDUCTANCE     BOTTOM EL.         
 -------------------------------------------------------------------------------
      1      1      1     15       20.42           4787.           20.00    
      2      1      2     15       19.91           4742.           19.75    
      3      1      3     15       19.99           5492.           19.50    
      4      1      4     15       19.27           1590.           19.25    
      5      1      5     15       19.50           5637.           19.00    
      6      1      6     15       18.58           4406.           18.75    
      7      1      7     15       18.81           4429.           18.50    
      8      1      8     15       18.60           4888.           18.25    
      9      1      9     15       18.71           4226.           18.00    
     10      1     10     15       18.93           4330.           17.75    
     11      1     11     15       17.91           3504.           17.50    
     12      1     12     15       17.57           3366.           17.25    
     13      1     13     15       17.23           5567.           17.00    
     14      1     14     15       17.37           3705.           16.75    
     15      1     15     15       16.84           4087.           16.50    
     16      1     16     15       16.80           4525.           16.25    
     17      1     17     15       16.32           2765.           16.00    
     18      1     18     15       16.30           4262.           15.75    
     19      1     19     15       16.15           4252.           15.50    
     20      1     20     15       16.09           5690.           15.25    
     21      1     21     15       15.51           6752.           15.00    
     22      1     22     15       15.36           4245.           14.75    
     23      1     23     15       15.26           4470.           14.50    
     24      1     24     15       15.14           3963.           14.25    
     25      1     25     15       14.67           3235.           14.00    
     26      1     26     15       14.65           3558.           13.75    
     27      1     27     15       14.23           921.2           13.50    
     28      1     28     15       13.87           3187.           13.25    
     29      1     29     15       13.77           4690.           13.00    
     30      1     30     15       13.55           3804.           12.75    
     31      1     31     15       13.21           3628.           12.50    
     32      1     32     15       13.12           4877.           12.25    
     33      1     33     15       12.89           3463.           12.00    
     34      1     34     15       12.61           4895.           11.75    
     35      1     35     15       12.35           5345.           11.50    
     36      1     36     15       12.11           4571.           11.25    
     37      1     37     15       12.03           3408.           11.00    
     38      1     38     15       11.48           5125.           10.75    
     39      1     39     15       11.74           3453.           10.50    
     40      1     40     15       11.44           5151.           10.25    

     40 RIVER REACHES

                 RECHARGE =  9.358508E-05
 
 SOLVING FOR HEAD 


    15 CALLS TO PCG ROUTINE FOR TIME STEP     1 IN STRESS PERIOD    3
   152 TOTAL ITERATIONS

 MAXIMUM HEAD CHANGE FOR EACH ITERATION (1 INDICATES THE FIRST INNER ITERATION):

    HEAD CHANGE    HEAD CHANGE    HEAD CHANGE    HEAD CHANGE    HEAD CHANGE 
   LAYER,ROW,COL  LAYER,ROW,COL  LAYER,ROW,COL  LAYER,ROW,COL  LAYER,ROW,COL
 ---------------------------------------------------------------------------
  1  -3.096      0  -2.662      0 -0.9963      0  0.3687      0  0.3747    
   (  1,  9,  4)  (  1,  8,  5)  (  1, 32,  1)  (  1, 35,  8)  (  1, 33,  2)
  0  0.1292      0  0.4537E-01  0  0.2873E-01  0  0.1142E-01  0  0.7855E-02
   (  1, 29,  4)  (  1, 17,  4)  (  1,  1,  7)  (  1, 32,  1)  (  1,  9,  4)
  0  0.4719E-02  0  0.3190E-02  0  0.8819E-03  0  0.4972E-03  0  0.2297E-03
   (  1, 27,  7)  (  1, 31,  3)  (  1, 27,  5)  (  1,  2,  9)  (  1,  3,  5)
  0  0.9630E-04  0 -0.6308E-04  0  0.4664E-04  0  0.1710E-04  0  0.5600E-05
   (  1, 24, 10)  (  1,  9,  4)  (  1,  9,  3)  (  1,  6, 10)  (  1,  3, 12)
  1  -1.259      0 -0.8321      0 -0.3470      0  0.1344      0  0.6123E-01
   (  1,  6, 15)  (  1,  9,  4)  (  1,  8,  5)  (  1,  8,  5)  (  1, 32,  1)
  0  0.3088E-01  0  0.1825E-01  0  0.8150E-02  0  0.7634E-02  0 -0.2488E-02
   (  1, 20,  3)  (  1, 31,  5)  (  1, 33,  2)  (  1,  8,  5)  (  1,  6,  1)
  0  0.1929E-02  0 -0.7958E-03  0 -0.5266E-03  0  0.2801E-03  0 -0.9702E-04
   (  1,  9,  4)  (  1, 15,  3)  (  1,  6,  6)  (  1,  5,  7)  (  1,  9, 12)
  0  0.5011E-04  0 -0.2563E-04  0  0.6669E-05  1  0.4964      0 -0.3021    
   (  1, 14,  2)  (  1, 16,  3)  (  1, 15,  2)  (  1,  9,  4)  (  1,  9,  4)
  0 -0.2069      0 -0.4932E-01  0  0.2968E-01  0  0.1077E-01  0 -0.6187E-02
   (  1,  8,  5)  (  1,  7, 13)  (  1,  4,  5)  (  1,  6, 11)  (  1,  8, 10)
  0 -0.2624E-02  0  0.1713E-02  0  0.1433E-02  0 -0.1128E-02  0  0.4092E-03
   (  1,  8,  5)  (  1,  8,  5)  (  1,  9,  4)  (  1,  9,  4)  (  1,  3,  3)
  0 -0.1471E-03  0  0.6807E-04  0 -0.3166E-04  0 -0.2275E-04  0  0.6341E-05
   (  1,  6,  6)  (  1,  9,  8)  (  1, 20,  3)  (  1, 33,  2)  (  1,  9,  4)
  1 -0.2062      0 -0.8838E-01  0 -0.4117E-01  0 -0.1893E-01  0  0.9895E-02
   (  1,  6, 15)  (  1,  9,  4)  (  1,  8,  5)  (  1,  7, 13)  (  1,  4,  6)
  0  0.3542E-02  0 -0.2121E-02  0 -0.8565E-03  0  0.6413E-03  0  0.2919E-03
   (  1, 20,  3)  (  1,  8, 11)  (  1,  8,  5)  (  1,  8,  5)  (  1,  2,  8)
  0  0.2888E-03  0  0.1548E-03  0 -0.4983E-04  0  0.3752E-04  0 -0.1656E-04
   (  1,  9,  4)  (  1,  4,  5)  (  1,  6,  6)  (  1, 16,  2)  (  1, 13,  1)
  0 -0.7923E-05  1 -0.7513E-01  0  0.3271E-01  0 -0.1351E-01  0 -0.5656E-02
   (  1, 33,  2)  (  1,  6, 15)  (  1,  9,  4)  (  1,  9,  4)  (  1,  7, 14)
  0 -0.2894E-02  0  0.1519E-02  0  0.6006E-03  0 -0.3156E-03  0  0.1836E-03
   (  1,  7, 14)  (  1, 20,  4)  (  1, 30,  4)  (  1,  8, 13)  (  1,  3,  8)
  0  0.1396E-03  0  0.1162E-03  0 -0.7655E-04  0  0.2437E-04  0  0.1102E-04
   (  1,  8,  6)  (  1,  9,  4)  (  1,  6,  1)  (  1,  5,  2)  (  1, 15,  2)
  0 -0.6507E-05  1 -0.2708E-01  0  0.1557E-01  0  0.3240E-02  0 -0.4152E-02
   (  1, 14,  2)  (  1,  6, 15)  (  1,  9,  4)  (  1,  8,  5)  (  1,  8,  5)
  0  0.1691E-02  0  0.4717E-03  0 -0.2816E-03  0 -0.1568E-03  0  0.5428E-04
   (  1,  8,  4)  (  1, 30,  7)  (  1, 25,  3)  (  1, 19,  4)  (  1, 28,  9)
  0  0.5096E-04  0  0.3537E-04  0 -0.2531E-04  0  0.8126E-05  1 -0.1109E-01
   (  1,  8,  6)  (  1,  9,  4)  (  1, 16,  4)  (  1, 13,  1)  (  1,  6, 15)
  0  0.5479E-02  0  0.1906E-02  0 -0.1689E-02  0 -0.4739E-03  0  0.2055E-03
   (  1,  9,  4)  (  1,  8,  5)  (  1,  8,  5)  (  1,  7, 14)  (  1, 30,  7)
  0 -0.1138E-03  0 -0.6018E-04  0  0.2271E-04  0  0.2561E-04  0 -0.1280E-04
   (  1, 25,  2)  (  1, 18,  4)  (  1, 27,  7)  (  1,  9,  1)  (  1,  9,  4)
  0 -0.6240E-05  1 -0.4668E-02  0  0.1623E-02  0  0.7741E-03  0 -0.6557E-03
   (  1,  6,  5)  (  1,  6, 15)  (  1,  9,  4)  (  1,  8,  5)  (  1,  8,  5)
  0 -0.1677E-03  0  0.7564E-04  0 -0.4194E-04  0 -0.2785E-04  0  0.9069E-05
   (  1,  7, 14)  (  1, 30,  7)  (  1, 25,  2)  (  1,  4,  5)  (  1, 27,  7)
  1 -0.1898E-02  0  0.4715E-03  0  0.2601E-03  0 -0.2560E-03  0 -0.6241E-04
   (  1,  6, 15)  (  1,  9,  4)  (  1,  8,  5)  (  1,  8,  5)  (  1,  7, 14)
  0  0.2705E-04  0 -0.1500E-04  0 -0.1091E-04  0  0.3332E-05  1 -0.7454E-03
   (  1, 30,  7)  (  1, 25,  3)  (  1,  4,  5)  (  1, 26,  6)  (  1,  6, 15)
  0  0.1169E-03  0  0.9884E-04  0 -0.1090E-03  0  0.2526E-04  0  0.1041E-04
   (  1,  8,  5)  (  1,  9,  4)  (  1,  9,  4)  (  1,  8,  5)  (  1,  5,  7)
  0 -0.5494E-05  1 -0.2885E-03  0 -0.4030E-04  0  0.5249E-04  0 -0.3289E-04
   (  1, 25,  3)  (  1,  6, 15)  (  1,  9,  4)  (  1,  9,  4)  (  1,  6,  2)
  0 -0.9050E-05  1 -0.1093E-03  0 -0.2130E-04  0  0.1868E-04  0 -0.1243E-04
   (  1,  7, 14)  (  1,  6, 15)  (  1,  9,  4)  (  1,  9,  4)  (  1,  4,  2)
  0 -0.5177E-05  1 -0.4109E-04  0  0.7907E-05  1  0.1080E-04  0 -0.1647E-04
   (  1,  7, 14)  (  1,  6, 15)  (  1,  8,  5)  (  1,  9,  4)  (  1,  9, 16)
  0 -0.2323E-05  1  0.5283E-05
   (  1, 14,  1)  (  1,  9,  4)

 MAXIMUM RESIDUAL FOR EACH ITERATION (1 INDICATES THE FIRST INNER ITERATION):

    RESIDUAL       RESIDUAL       RESIDUAL       RESIDUAL       RESIDUAL    
   LAYER,ROW,COL  LAYER,ROW,COL  LAYER,ROW,COL  LAYER,ROW,COL  LAYER,ROW,COL
 ---------------------------------------------------------------------------
  1  -1546.      0  -886.9      0  -367.6      0  -150.8      0  -45.02    
   (  1, 20, 15)  (  1, 20, 15)  (  1, 20, 15)  (  1, 20, 15)  (  1, 20, 15)
  0  -19.50      0  -9.131      0  -3.009      0  -1.238      0 -0.9992    
   (  1, 20, 15)  (  1, 20, 15)  (  1, 20, 15)  (  1, 20, 15)  (  1, 20, 15)
  0 -0.4867      0 -0.2142      0 -0.8512E-01  0 -0.3810E-01  0 -0.1906E-01
   (  1, 20, 15)  (  1, 20, 15)  (  1, 20, 15)  (  1, 20, 15)  (  1, 21, 15)
  0  0.1064E-01  0  0.6444E-02  0  0.5047E-02  0  0.2642E-02  0  0.1140E-02
   (  1, 39, 15)  (  1, 39, 15)  (  1, 39, 15)  (  1, 39, 15)  (  1, 39, 15)
  1  -230.2      0  -155.8      0  -101.1      0  -42.22      0  -20.23    
   (  1, 20, 15)  (  1, 20, 15)  (  1, 20, 15)  (  1, 20, 15)  (  1, 20, 15)
  0  -10.03      0  -4.757      0  -2.015      0  -1.099      0 -0.5330    
   (  1, 20, 15)  (  1, 20, 15)  (  1, 20, 15)  (  1, 20, 15)  (  1, 20, 15)
  0 -0.4272      0 -0.2175      0 -0.8520E-01  0 -0.3871E-01  0 -0.1678E-01
   (  1, 20, 15)  (  1, 20, 15)  (  1, 20, 15)  (  1, 20, 15)  (  1, 20, 15)
  0 -0.6968E-02  0 -0.3098E-02  0 -0.1258E-02  1  -87.60      0  -51.56    
   (  1, 20, 15)  (  1, 20, 15)  (  1, 20, 15)  (  1, 20, 15)  (  1, 20, 15)
  0  -31.42      0  -14.36      0  -6.758      0  -3.584      0  -1.719    
   (  1, 20, 15)  (  1, 20, 15)  (  1, 20, 15)  (  1, 20, 15)  (  1, 20, 15)
  0 -0.8292      0 -0.4428      0 -0.2636      0 -0.1842      0 -0.8167E-01
   (  1, 20, 15)  (  1, 20, 15)  (  1, 20, 15)  (  1, 20, 15)  (  1, 20, 15)
  0 -0.3114E-01  0 -0.1400E-01  0 -0.5974E-02  0 -0.2524E-02  0 -0.1047E-02
   (  1, 20, 15)  (  1, 20, 15)  (  1, 20, 15)  (  1, 20, 15)  (  1, 20, 15)
  1  -15.66      0  -11.26      0  -8.509      0   4.303      0  -1.918    
   (  1, 20, 15)  (  1, 20, 15)  (  1, 20, 15)  (  1,  7, 14)  (  1, 20, 15)
  0  -1.049      0 -0.5256      0 -0.2508      0 -0.1379      0 -0.6652E-01
   (  1, 20, 15)  (  1, 20, 15)  (  1, 20, 15)  (  1, 20, 15)  (  1, 20, 15)
  0 -0.5046E-01  0 -0.2698E-01  0 -0.1059E-01  0  0.5094E-02  0 -0.2054E-02
   (  1, 20, 15)  (  1, 20, 15)  (  1, 20, 15)  (  1,  9, 12)  (  1, 20, 15)
  0 -0.8738E-03  1  -5.237      0  -3.666      0   2.526      0   1.341    
   (  1, 20, 15)  (  1, 20, 15)  (  1, 20, 15)  (  1,  7, 14)  (  1,  7, 14)
  0  0.5167      0 -0.2705      0  0.1523      0  0.8248E-01  0  0.3575E-01
   (  1,  7, 14)  (  1, 20, 15)  (  1,  8, 13)  (  1,  8, 13)  (  1,  8, 13)
  0 -0.1789E-01  0 -0.1339E-01  0 -0.7795E-02  0  0.3697E-02  0  0.1878E-02
   (  1, 20, 15)  (  1, 20, 15)  (  1, 20, 15)  (  1,  9, 12)  (  1,  9, 12)
  0 -0.6448E-03  1   2.318      0   1.457      0   1.074      0  0.5579    
   (  1, 20, 15)  (  1,  6, 15)  (  1,  7, 14)  (  1,  7, 14)  (  1,  7, 14)
  0  0.1955      0 -0.8417E-01  0  0.6015E-01  0  0.3309E-01  0  0.1829E-01
   (  1,  7, 14)  (  1, 20, 15)  (  1,  8, 13)  (  1,  8, 13)  (  1,  8, 13)
  0  0.6614E-02  0  0.5162E-02  0  0.2432E-02  0  0.1403E-02  1  0.7433    
   (  1,  8, 13)  (  1,  8, 13)  (  1,  9, 12)  (  1,  9, 12)  (  1,  6, 15)
  0  0.5821      0  0.4500      0  0.2106      0  0.7487E-01  0  0.3209E-01
   (  1,  7, 14)  (  1,  7, 14)  (  1,  7, 14)  (  1,  7, 14)  (  1,  7, 14)
  0  0.2329E-01  0  0.1298E-01  0  0.6751E-02  0  0.2557E-02  0  0.1919E-02
   (  1,  8, 13)  (  1,  8, 13)  (  1,  8, 13)  (  1,  8, 13)  (  1,  8, 13)
  0  0.9731E-03  1  0.2274      0  0.2308      0  0.1775      0  0.7875E-01
   (  1,  9, 12)  (  1,  7, 14)  (  1,  7, 14)  (  1,  7, 14)  (  1,  7, 14)
  0  0.2829E-01  0 -0.1188E-01  0  0.8950E-02  0  0.5055E-02  0  0.2482E-02
   (  1,  7, 14)  (  1,  7, 13)  (  1,  8, 13)  (  1,  8, 13)  (  1,  8, 13)
  1  0.9473E-01  0  0.8852E-01  0  0.6805E-01  0  0.2983E-01  0  0.1074E-01
   (  1,  7, 14)  (  1,  7, 14)  (  1,  7, 14)  (  1,  7, 14)  (  1,  7, 14)
  0  0.4767E-02  0  0.3477E-02  0  0.1949E-02  0  0.9921E-03  1  0.3787E-01
   (  1,  8, 13)  (  1,  8, 13)  (  1,  8, 13)  (  1,  8, 13)  (  1,  7, 14)
  0  0.3015E-01  0  0.2490E-01  0  0.1128E-01  0  0.4039E-02  0  0.1888E-02
   (  1,  7, 14)  (  1,  7, 14)  (  1,  7, 14)  (  1,  7, 14)  (  1,  8, 13)
  0  0.1351E-02  1  0.1515E-01  0  0.1378E-01  0  0.1008E-01  0  0.4369E-02
   (  1,  8, 13)  (  1,  7, 14)  (  1,  7, 14)  (  1,  7, 14)  (  1,  7, 14)
  0  0.1743E-02  1  0.5890E-02  0  0.5408E-02  0  0.4219E-02  0  0.1981E-02
   (  1,  7, 14)  (  1,  7, 14)  (  1,  7, 14)  (  1,  7, 14)  (  1,  7, 14)
  0  0.5760E-03  1  0.2339E-02  0  0.2063E-02  1  0.4549E-02  0  0.4600E-03
   (  1,  7, 14)  (  1,  7, 14)  (  1,  7, 14)  (  1,  6, 15)  (  1,  7, 14)
  0  0.3277E-03  1  0.1823E-02
   (  1,  7, 14)  (  1,  9, 16)



 OUTPUT CONTROL FOR STRESS PERIOD    3   TIME STEP    1
    SAVE HEAD FOR ALL LAYERS
    SAVE BUDGET
 UBDSV2 SAVING "   CONSTANT HEAD" ON UNIT  53 AT TIME STEP     1, STRESS PERIOD   3
 UBDSV1 SAVING "FLOW RIGHT FACE " ON UNIT  53 AT TIME STEP     1, STRESS PERIOD   3
 UBDSV1 SAVING "FLOW FRONT FACE " ON UNIT  53 AT TIME STEP     1, STRESS PERIOD   3

 HEAD WILL BE SAVED ON UNIT   51 AT END OF TIME STEP    1, STRESS PERIOD    3
1
  VOLUMETRIC BUDGET FOR ENTIRE MODEL AT END OF TIME STEP    1, STRESS PERIOD   3
  ------------------------------------------------------------------------------

     CUMULATIVE VOLUMES      L**3       RATES FOR THIS TIME STEP      L**3/T
     ------------------                 ------------------------

           IN:                                      IN:
           ---                                      ---
             STORAGE =     2586430.7500               STORAGE =           0.0000
       CONSTANT HEAD =         331.4857         CONSTANT HEAD =           1.7415
               WELLS =           0.0000                 WELLS =           0.0000
       RIVER LEAKAGE =      870356.7500         RIVER LEAKAGE =        1222.7574
            RECHARGE =     7428880.0000              RECHARGE =        4065.1018

            TOTAL IN =    10885999.0000              TOTAL IN =        5289.6006

          OUT:                                     OUT:
          ----                                     ----
             STORAGE =      117199.2344               STORAGE =           0.0000
       CONSTANT HEAD =      443380.2500         CONSTANT HEAD =         137.8560
               WELLS =     4234801.5000                 WELLS =        2327.2019
       RIVER LEAKAGE =     6090620.0000         RIVER LEAKAGE =        2824.5422
            RECHARGE =           0.0000              RECHARGE =           0.0000

           TOTAL OUT =    10886001.0000             TOTAL OUT =        5289.6001

            IN - OUT =          -2.0000              IN - OUT =       4.8828E-04

 PERCENT DISCREPANCY =          -0.00     PERCENT DISCREPANCY =           0.00






         TIME SUMMARY AT END OF TIME STEP    1 IN STRESS PERIOD    3
                    SECONDS     MINUTES      HOURS       DAYS        YEARS
                    -----------------------------------------------------------
   TIME STEP LENGTH  86400.      1440.0      24.000      1.0000     2.73785E-03
 STRESS PERIOD TIME  86400.      1440.0      24.000      1.0000     2.73785E-03
         TOTAL TIME 1.57853E+08 2.63088E+06  43848.      1827.0      5.0021    
1

 HEAD AND DRAWDOWN OBSERVATIONS
 OBSERVATION       OBSERVED           SIMULATED
   NAME              VALUE              VALUE             DIFFERENCE
 --------------------------------------------------------------------
 obswel1_1      -999.00000000        23.746187210       -1022.7462158    
 obswel2_1      -999.00000000        19.891712189       -1018.8917236    
 obswel3_1      -999.00000000        24.470775604       -1023.4707642    
 obswel4_1      -999.00000000        32.504268646       -1031.5042725    
 obswel5_1      -999.00000000        18.690280914       -1017.6903076    
 obswel6_1      -999.00000000        17.735452652       -1016.7354736    
 obswel7_1      -999.00000000        17.986717224       -1016.9866943    
 obswel8_1      -999.00000000        16.096384048       -1015.0963745    
 obswel9_1      -999.00000000        23.541910172       -1022.5419312    
 obswel10_1     -999.00000000        21.109552383       -1020.1095581    
 obswel11_1     -999.00000000        14.561541557       -1013.5615234    
 obswel12_1     -999.00000000        17.666057587       -1016.6660767    
 obswel13_1     -999.00000000        14.593016624       -1013.5930176    
 obswel1_2      -999.00000000        23.556043625       -1022.5560303    
 obswel2_2      -999.00000000        19.825754166       -1018.8257446    
 obswel3_2      -999.00000000        24.232164383       -1023.2321777    
 obswel4_2      -999.00000000        32.198162079       -1031.1981201    
 obswel5_2      -999.00000000        18.476736069       -1017.4767456    
 obswel6_2      -999.00000000        17.568403244       -1016.5684204    
 obswel7_2      -999.00000000        17.727985382       -1016.7279663    
 obswel8_2      -999.00000000        15.929220200       -1014.9291992    
 obswel9_2      -999.00000000        23.225763321       -1022.2257690    
 obswel10_2     -999.00000000        20.787919998       -1019.7879028    
 obswel11_2     -999.00000000        14.407597542       -1013.4075928    
 obswel12_2     -999.00000000        17.377725601       -1016.3777466    
 obswel13_2     -999.00000000        14.326222420       -1013.3262329    
 obswel1_3      -999.00000000        22.173536301       -1021.1735229    
 obswel2_3      -999.00000000        19.475677490       -1018.4757080    
 obswel3_3      -999.00000000        22.613693237       -1021.6137085    
 obswel4_3      -999.00000000        28.886810303       -1027.8868408    
 obswel5_3      -999.00000000        17.849069595       -1016.8490601    
 obswel6_3      -999.00000000        17.326696396       -1016.3267212    
 obswel7_3      -999.00000000        16.839475632       -1015.8394775    
 obswel8_3      -999.00000000        15.769691467       -1014.7697144    
 obswel9_3      -999.00000000        20.866636276       -1019.8666382    
 obswel10_3     -999.00000000        18.844467163       -1017.8444824    
 obswel11_3     -999.00000000        14.181406975       -1013.1813965    
 obswel12_3     -999.00000000        16.219392776       -1015.2194214    
 obswel13_3     -999.00000000        13.781838417       -1012.7818604    

 HEAD/DRAWDOWN SUM OF SQUARED DIFFERENCE:    4.04705E+07

 Run end date and time (yyyy/mm/dd hh:mm:ss): 2019/10/04 11:09:25
 Elapsed run time:  0.097 Seconds

