                                  MODFLOW-NWT-SWR1 
      U.S. GEOLOGICAL SURVEY MODULAR FINITE-DIFFERENCE GROUNDWATER-FLOW MODEL
                            VERSION 1.1.5 09/10/2019
                    BASED ON MODFLOW-2005 VERSION 1.12.00 02/03/2017

 LIST FILE: freyberg.list
                         UNIT    2
#                                                                                                                                                                                                                                                                                                           
# Model Input                                                                                                                                                                                                                                                                                               
#                                                                                                                                                                                                                                                                                                           

 OPENING ./input/freyberg.hyd
 FILE TYPE:HYD   UNIT   36   STATUS:OLD    
 FORMAT:FORMATTED              ACCESS:SEQUENTIAL          

 OPENING ./input/freyberg.dis
 FILE TYPE:DIS   UNIT   11   STATUS:OLD    
 FORMAT:FORMATTED              ACCESS:SEQUENTIAL          

 OPENING ./input/freyberg.lpf
 FILE TYPE:LPF   UNIT   31   STATUS:OLD    
 FORMAT:FORMATTED              ACCESS:SEQUENTIAL          

 OPENING ./input/freyberg.pcg
 FILE TYPE:PCG   UNIT   32   STATUS:OLD    
 FORMAT:FORMATTED              ACCESS:SEQUENTIAL          

 OPENING ./input/freyberg.bas
 FILE TYPE:BAS6   UNIT   13   STATUS:OLD    
 FORMAT:FORMATTED              ACCESS:SEQUENTIAL          

 OPENING ./input/freyberg.rch
 FILE TYPE:RCH   UNIT   19   STATUS:OLD    
 FORMAT:FORMATTED              ACCESS:SEQUENTIAL          

 OPENING ./input/freyberg.wel
 FILE TYPE:WEL   UNIT   20   STATUS:OLD    
 FORMAT:FORMATTED              ACCESS:SEQUENTIAL          
#RIV           18 ./input/freyberg.riv                                                                                                                                                                                                                                                                      

 OPENING ./input/freyberg.sfr
 FILE TYPE:SFR   UNIT   41   STATUS:OLD    
 FORMAT:FORMATTED              ACCESS:SEQUENTIAL          

 OPENING ./input/freyberg.oc
 FILE TYPE:OC   UNIT   14   STATUS:OLD    
 FORMAT:FORMATTED              ACCESS:SEQUENTIAL          

 OPENING ./input/freyberg.hob
 FILE TYPE:HOB   UNIT   15   STATUS:OLD    
 FORMAT:FORMATTED              ACCESS:SEQUENTIAL          

 OPENING ./input/freyberg.gag
 FILE TYPE:GAGE   UNIT   16   STATUS:OLD    
 FORMAT:FORMATTED              ACCESS:SEQUENTIAL          
#                                                                                                                                                                                                                                                                                                           
# Model Output                                                                                                                                                                                                                                                                                              
#                                                                                                                                                                                                                                                                                                           

 OPENING ./output/freyberg.hobs
 FILE TYPE:DATA   UNIT   42   STATUS:UNKNOWN
 FORMAT:FORMATTED              ACCESS:SEQUENTIAL          

 OPENING ./output/freyberg.sfrout
 FILE TYPE:DATA   UNIT  201   STATUS:UNKNOWN
 FORMAT:FORMATTED              ACCESS:SEQUENTIAL          

 OPENING ./output/freyberg.hds
 FILE TYPE:DATA(BINARY)   UNIT   51   STATUS:REPLACE
 FORMAT:BINARY                 ACCESS:SEQUENTIAL          

 OPENING ./output/freyberg.ddn
 FILE TYPE:DATA(BINARY)   UNIT   52   STATUS:REPLACE
 FORMAT:BINARY                 ACCESS:SEQUENTIAL          

 OPENING ./output/freyberg.cbc
 FILE TYPE:DATA(BINARY)   UNIT   53   STATUS:REPLACE
 FORMAT:BINARY                 ACCESS:SEQUENTIAL          

 OPENING ./output/freyberg.hyd.bin
 FILE TYPE:DATA(BINARY)   UNIT  536   STATUS:REPLACE
 FORMAT:BINARY                 ACCESS:SEQUENTIAL          

 BAS -- BASIC PACKAGE, VERSION 1.1.5, 9/10/2019 INPUT READ FROM UNIT   13
 
 MODFLOW was compiled using mixed precision
 Precision of REAL variables:           6
 Precision of DOUBLE PRECISION variables:          15

 DISCRETIZATION INPUT DATA READ FROM UNIT   11
 # Discretization file for MODFLOW, generated by Flopy.
 # NLAY NROW NCOL NPER  ITMUNI LENUNI  ITMUNI: 4 = days; LENUNI: 2 = meters
    1 LAYERS        40 ROWS        20 COLUMNS
    3 STRESS PERIOD(S) IN SIMULATION
 MODEL TIME UNIT IS DAYS
 MODEL LENGTH UNIT IS METERS
  Confining bed flag for each layer:
   0

                     DELR =   250.000    

                     DELC =   250.000    

 TOP ELEVATION OF LAYER 1 =   35.0000    

 OPENING FILE ON UNIT   99:
 .\input\dis_support\botm.ref                                                                                                                                                                            



             MODEL LAYER BOTTOM EL. FOR LAYER   1
 READING ON UNIT   99 WITH FORMAT: (10E12.4)           


 STRESS PERIOD     LENGTH       TIME STEPS     MULTIPLIER FOR DELT    SS FLAG
 ----------------------------------------------------------------------------
        1         1.000000          1                    1.000         SS
        2         1825.000          1                    1.000         TR
        3         1.000000          1                    1.000         SS

 COMBINED STEADY-STATE AND TRANSIENT SIMULATION



 
 # Basic package file for MODFLOW, generated by Flopy.                           
 THE FREE FORMAT OPTION HAS BEEN SELECTED

 OPENING FILE ON UNIT   99:
 .\input\bas_support\ibound.ref                                                                                                                                                                          



                     BOUNDARY ARRAY FOR LAYER   1
 READING ON UNIT   99 WITH FORMAT: (25I3)              

 AQUIFER HEAD WILL BE SET TO  -999.99     AT ALL NO-FLOW NODES (IBOUND=0).

 OPENING FILE ON UNIT   99:
 .\input\bas_support\strt.ref                                                                                                                                                                            



                       INITIAL HEAD FOR LAYER   1
 READING ON UNIT   99 WITH FORMAT: (10E12.4)           
 # Output control package file for MODFLOW, generated by Flopy.

 OUTPUT CONTROL IS SPECIFIED ONLY AT TIME STEPS FOR WHICH OUTPUT IS DESIRED
 COMPACT CELL-BY-CELL BUDGET FILES WILL BE WRITTEN
 AUXILIARY DATA WILL BE SAVED IN CELL-BY-CELL BUDGET FILES
 HEAD PRINT FORMAT CODE IS   0    DRAWDOWN PRINT FORMAT CODE IS   0
 HEADS WILL BE SAVED ON UNIT   51    DRAWDOWNS WILL BE SAVED ON UNIT   52

 LPF -- LAYER-PROPERTY FLOW PACKAGE, VERSION 7, 5/2/2005
         INPUT READ FROM UNIT   31
 # LPF for MODFLOW-2005, generated by Flopy.
 CELL-BY-CELL FLOWS WILL BE SAVED ON UNIT   53
 HEAD AT CELLS THAT CONVERT TO DRY= -1.00000E+30
 No named parameters

   LAYER FLAGS:
 LAYER       LAYTYP        LAYAVG         CHANI        LAYVKA        LAYWET
 ---------------------------------------------------------------------------
    1             1             0     1.000E+00             0             0

   INTERPRETATION OF LAYER FLAGS:
                        INTERBLOCK     HORIZONTAL    DATA IN
         LAYER TYPE   TRANSMISSIVITY   ANISOTROPY   ARRAY VKA   WETTABILITY
 LAYER      (LAYTYP)      (LAYAVG)       (CHANI)      (LAYVKA)      (LAYWET)
 ---------------------------------------------------------------------------
    1   CONVERTIBLE      HARMONIC     1.000E+00    VERTICAL K  NON-WETTABLE

 WETTING CAPABILITY IS NOT ACTIVE IN ANY LAYER

 OPENING FILE ON UNIT   99:
 .\input\lpf_support\hk.ref                                                                                                                                                                              



              HYD. COND. ALONG ROWS FOR LAYER   1
 READING ON UNIT   99 WITH FORMAT: (FREE)              

            1           2           3           4           5           6           7           8           9          10
           11          12          13          14          15          16          17          18          19          20
 ........................................................................................................................
   1    4.946       4.946       4.946       4.946       4.946       4.946       4.946       4.946       4.946       4.946    
        4.946       4.946       4.946       4.946       4.946       4.946       4.946       4.946       4.946       4.946    
   2    4.946       4.946       4.946       4.946       4.946       4.946       4.946       4.946       4.946       4.946    
        4.946       4.946       4.946       4.946       4.946       4.946       4.946       4.946       4.946       4.946    
   3    4.946       4.946       4.946       4.946       4.946       4.946       4.946       4.946       4.946       4.946    
        4.946       4.946       4.946       4.946       4.946       4.946       4.946       4.946       4.946       4.946    
   4    4.946       4.946       4.946       4.946       4.946       4.946       4.946       4.946       4.946       4.946    
        4.946       4.946       4.946       4.946       4.946       4.946       4.946       4.946       4.946       4.946    
   5    4.946       4.946       4.946       4.946       4.946       4.946       4.946       4.946       4.946       4.946    
        4.946       4.946       4.946       4.946       4.946       4.946       4.946       4.946       4.946       4.946    
   6    4.946       4.946       4.946       4.946       4.946       4.946       4.946       4.946       4.946       4.946    
        4.946       4.946       4.946       4.946       4.946       4.946       4.946       4.946       4.946       4.946    
   7    4.946       4.946       4.946       4.946       4.946       4.946       4.946       4.946       4.946       4.946    
        4.946       4.946       4.946       4.946       4.946       4.946       4.946       4.946       4.946       4.946    
   8    4.946       4.946       4.946       4.946       4.946       4.946       4.946       4.946       4.946       4.946    
        4.946       4.946       4.946       4.946       4.946       4.946       4.946       4.946       4.946       4.946    
   9    4.946       4.946       4.946       4.946       4.946       4.946       4.946       4.946       4.946       4.946    
        4.946       4.946       4.946       4.946       4.946       4.946       4.946       4.946       4.946       4.946    
  10    4.946       4.946       4.946       4.946       4.946       4.946       4.946       4.946       4.946       4.946    
        4.946       4.946       4.946       4.946       4.946       4.946       4.946       4.946       4.946       4.946    
  11    4.946       4.946       4.946       4.946       4.946       4.946       4.946       4.946       4.946       4.946    
        4.946       4.946       4.946       4.946       4.946       4.946       4.946       4.946       4.946       4.946    
  12    4.946       4.946       4.946       4.946       4.946       4.946       4.946       4.946       4.946       4.946    
        4.946       4.946       4.946       4.946       4.946       4.946       4.946       4.946       4.946       4.946    
  13    4.946       4.946       4.946       4.946       4.946       4.946       4.946       4.946       4.946       4.946    
        4.946       4.946       4.946       4.946       4.946       4.946       4.946       4.946       4.946       4.946    
  14    4.946       4.946       4.946       4.946       4.946       4.946       4.946       4.946       4.946       4.946    
        4.946       4.946       4.946       4.946       4.946       4.946       4.946       4.946       4.946       4.946    
  15    4.946       4.946       4.946       4.946       4.946       4.946       4.946       4.946       4.946       4.946    
        4.946       4.946       4.946       4.946       4.946       4.946       4.946       4.946       4.946       4.946    
  16    4.946       4.946       4.946       4.946       4.946       4.946       4.946       4.946       4.946       4.946    
        4.946       4.946       4.946       4.946       4.946       4.946       4.946       4.946       4.946       4.946    
  17    4.946       4.946       4.946       4.946       4.946       4.946       4.946       4.946       4.946       4.946    
        4.946       4.946       4.946       4.946       4.946       4.946       4.946       4.946       4.946       4.946    
  18    4.946       4.946       4.946       4.946       4.946       4.946       4.946       4.946       4.946       4.946    
        4.946       4.946       4.946       4.946       4.946       4.946       4.946       4.946       4.946       4.946    
  19    4.946       4.946       4.946       4.946       4.946       4.946       4.946       4.946       4.946       4.946    
        4.946       4.946       4.946       4.946       4.946       4.946       4.946       4.946       4.946       4.946    
  20    4.946       4.946       4.946       4.946       4.946       4.946       4.946       4.946       4.946       4.946    
        4.946       4.946       4.946       4.946       4.946       4.946       4.946       4.946       4.946       4.946    
  21    4.946       4.946       4.946       4.946       4.946       4.946       4.946       4.946       4.946       4.946    
        4.946       4.946       4.946       4.946       4.946       4.946       4.946       4.946       4.946       4.946    
  22    4.946       4.946       4.946       4.946       4.946       4.946       4.946       4.946       4.946       4.946    
        4.946       4.946       4.946       4.946       4.946       4.946       4.946       4.946       4.946       4.946    
  23    4.946       4.946       4.946       4.946       4.946       4.946       4.946       4.946       4.946       4.946    
        4.946       4.946       4.946       4.946       4.946       4.946       4.946       4.946       4.946       4.946    
  24    4.946       4.946       4.946       4.946       4.946       4.946       4.946       4.946       4.946       4.946    
        4.946       4.946       4.946       4.946       4.946       4.946       4.946       4.946       4.946       4.946    
  25    4.946       4.946       4.946       4.946       4.946       4.946       4.946       4.946       4.946       4.946    
        4.946       4.946       4.946       4.946       4.946       4.946       4.946       4.946       4.946       4.946    
  26    4.946       4.946       4.946       4.946       4.946       4.946       4.946       4.946       4.946       4.946    
        4.946       4.946       4.946       4.946       4.946       4.946       4.946       4.946       4.946       4.946    
  27    4.946       4.946       4.946       4.946       4.946       4.946       4.946       4.946       4.946       4.946    
        4.946       4.946       4.946       4.946       4.946       4.946       4.946       4.946       4.946       4.946    
  28    4.946       4.946       4.946       4.946       4.946       4.946       4.946       4.946       4.946       4.946    
        4.946       4.946       4.946       4.946       4.946       4.946       4.946       4.946       4.946       4.946    
  29    4.946       4.946       4.946       4.946       4.946       4.946       4.946       4.946       4.946       4.946    
        4.946       4.946       4.946       4.946       4.946       4.946       4.946       4.946       4.946       4.946    
  30    4.946       4.946       4.946       4.946       4.946       4.946       4.946       4.946       4.946       4.946    
        4.946       4.946       4.946       4.946       4.946       4.946       4.946       4.946       4.946       4.946    
  31    4.946       4.946       4.946       4.946       4.946       4.946       4.946       4.946       4.946       4.946    
        4.946       4.946       4.946       4.946       4.946       4.946       4.946       4.946       4.946       4.946    
  32    4.946       4.946       4.946       4.946       4.946       4.946       4.946       4.946       4.946       4.946    
        4.946       4.946       4.946       4.946       4.946       4.946       4.946       4.946       4.946       4.946    
  33    4.946       4.946       4.946       4.946       4.946       4.946       4.946       4.946       4.946       4.946    
        4.946       4.946       4.946       4.946       4.946       4.946       4.946       4.946       4.946       4.946    
  34    4.946       4.946       4.946       4.946       4.946       4.946       4.946       4.946       4.946       4.946    
        4.946       4.946       4.946       4.946       4.946       4.946       4.946       4.946       4.946       4.946    
  35    4.946       4.946       4.946       4.946       4.946       4.946       4.946       4.946       4.946       4.946    
        4.946       4.946       4.946       4.946       4.946       4.946       4.946       4.946       4.946       4.946    
  36    4.946       4.946       4.946       4.946       4.946       4.946       4.946       4.946       4.946       4.946    
        4.946       4.946       4.946       4.946       4.946       4.946       4.946       4.946       4.946       4.946    
  37    4.946       4.946       4.946       4.946       4.946       4.946       4.946       4.946       4.946       4.946    
        4.946       4.946       4.946       4.946       4.946       4.946       4.946       4.946       4.946       4.946    
  38    4.946       4.946       4.946       4.946       4.946       4.946       4.946       4.946       4.946       4.946    
        4.946       4.946       4.946       4.946       4.946       4.946       4.946       4.946       4.946       4.946    
  39    4.946       4.946       4.946       4.946       4.946       4.946       4.946       4.946       4.946       4.946    
        4.946       4.946       4.946       4.946       4.946       4.946       4.946       4.946       4.946       4.946    
  40    4.946       4.946       4.946       4.946       4.946       4.946       4.946       4.946       4.946       4.946    
        4.946       4.946       4.946       4.946       4.946       4.946       4.946       4.946       4.946       4.946    

      VERTICAL HYD. COND. =   1.00000     FOR LAYER   1

         SPECIFIC STORAGE =  1.000000E-04 FOR LAYER   1

           SPECIFIC YIELD =  0.250000     FOR LAYER   1

 WEL -- WELL PACKAGE FOR NWT VERSION 1.1.4,  4/01/2018 INPUT READ FROM UNIT   20
 # Well file for MODFLOW, generated by Flopy.
 No named parameters
 MAXIMUM OF      6 ACTIVE WELLS AT ONE TIME
 No named parameters


     0 Well parameters

 RCH -- RECHARGE PACKAGE, VERSION 7, 5/2/2005 INPUT READ FROM UNIT   19
 # RCH for MODFLOW, generated by Flopy.
 No named parameters
 OPTION 3 -- RECHARGE TO HIGHEST ACTIVE NODE IN EACH VERTICAL COLUMN


     0 Recharge parameters

 SFR7 -- STREAMFLOW ROUTING PACKAGE, VERSION 1.0.5, 2012-04-05
         INPUT READ FROM UNIT  41
 # NSTRM  NSS NSFRPAR NPARSEG  CONST    DLEAK   ISTCB1  ISTCB2    ISFROPT
 #  KRCH IRCH    JRCH    ISEG IREACH   RCHLEN [STRTOP] [SLOPE] [STRTHICK] [STRHC1]
 No named parameters

 PROCESSING SFR2 OPTIONS
 
  Some stream information will be read by reach. This option replaces NSTRM<0

 END PROCESSING SFR2 OPTIONS
 


 NUMBER OF STREAM REACHES IS   39

 NUMBER OF STREAM SEGMENTS IS    1

 NUMBER OF STREAM PARAMETERS IS    0

 NUMBER OF STREAM SEGMENTS DEFINED USING PARAMETERS IS              0

 MAXIMUM ERROR FOR STREAM LEAKAGE RATES IS  1.00E-04

 CONSTANT FOR MANNINGS EQUATION IS  8.6400E+04





 USING DATA INPUT MODIFIED FROM ORIGINAL SFR PROGRAM FOR FARM PACKAGE



   STREAM NETWORK DESCRIPTION: 

   LAYER    ROW    COL   SEGMENT   REACH     LENGTH     STREAMBED     STREAMBED   STREAMBED     STREAMBED
                          NUMBER   NUMBER    IN CELL    TOP ELEV.       SLOPE     THICKNESS   HYDR. CONDUCT.        
   ---------------------------------------------------------------------------------------------------------
       1      1     15       1        1    2.5000E+02   2.0000E+01   1.0000E-03   1.7772E+00   5.0000E+01
       1      2     15       1        2    2.5000E+02   1.9750E+01   1.0000E-03   1.1662E+00   5.0000E+01
       1      3     15       1        3    2.5000E+02   1.9500E+01   1.0000E-03   1.7021E+00   5.0000E+01
       1      4     15       1        4    2.5000E+02   1.9250E+01   1.0000E-03   1.8877E+00   5.0000E+01
       1      5     15       1        5    2.5000E+02   1.9000E+01   1.0000E-03   1.7035E+00   5.0000E+01
       1      6     15       1        6    2.5000E+02   1.8750E+01   1.0000E-03   1.1822E+00   5.0000E+01
       1      7     15       1        7    2.5000E+02   1.8500E+01   1.0000E-03   8.8180E-01   5.0000E+01
       1      8     15       1        8    2.5000E+02   1.8250E+01   1.0000E-03   1.3286E+00   5.0000E+01
       1      9     15       1        9    2.5000E+02   1.8000E+01   1.0000E-03   1.4756E+00   5.0000E+01
       1     10     15       1       10    2.5000E+02   1.7750E+01   1.0000E-03   1.4269E+00   5.0000E+01
       1     11     15       1       11    2.5000E+02   1.7500E+01   1.0000E-03   1.4212E+00   5.0000E+01
       1     12     15       1       12    2.5000E+02   1.7250E+01   1.0000E-03   1.6844E+00   5.0000E+01
       1     13     15       1       13    2.5000E+02   1.7000E+01   1.0000E-03   1.0625E+00   5.0000E+01
       1     14     15       1       14    2.5000E+02   1.6750E+01   1.0000E-03   1.9234E+00   5.0000E+01
       1     15     15       1       15    2.5000E+02   1.6500E+01   1.0000E-03   1.6328E+00   5.0000E+01
       1     16     15       1       16    2.5000E+02   1.6250E+01   1.0000E-03   2.1482E+00   5.0000E+01
       1     17     15       1       17    2.5000E+02   1.6000E+01   1.0000E-03   1.5600E+00   5.0000E+01
       1     18     15       1       18    2.5000E+02   1.5750E+01   1.0000E-03   1.4019E+00   5.0000E+01
       1     19     15       1       19    2.5000E+02   1.5500E+01   1.0000E-03   1.6316E+00   5.0000E+01
       1     20     15       1       20    2.5000E+02   1.5250E+01   1.0000E-03   1.4663E+00   5.0000E+01
       1     21     15       1       21    2.5000E+02   1.5000E+01   1.0000E-03   1.6585E+00   5.0000E+01
       1     22     15       1       22    2.5000E+02   1.4750E+01   1.0000E-03   8.1520E-01   5.0000E+01
       1     23     15       1       23    2.5000E+02   1.4500E+01   1.0000E-03   1.3376E+00   5.0000E+01
       1     24     15       1       24    2.5000E+02   1.4250E+01   1.0000E-03   1.5722E+00   5.0000E+01
       1     25     15       1       25    2.5000E+02   1.4000E+01   1.0000E-03   1.1399E+00   5.0000E+01
       1     26     15       1       26    2.5000E+02   1.3750E+01   1.0000E-03   1.1417E+00   5.0000E+01
       1     27     15       1       27    2.5000E+02   1.3500E+01   1.0000E-03   1.3797E+00   5.0000E+01
       1     28     15       1       28    2.5000E+02   1.3250E+01   1.0000E-03   1.3553E+00   5.0000E+01
       1     29     15       1       29    2.5000E+02   1.3000E+01   1.0000E-03   1.5709E+00   5.0000E+01
       1     30     15       1       30    2.5000E+02   1.2750E+01   1.0000E-03   1.7292E+00   5.0000E+01
       1     31     15       1       31    2.5000E+02   1.2500E+01   1.0000E-03   1.0744E+00   5.0000E+01
       1     32     15       1       32    2.5000E+02   1.2250E+01   1.0000E-03   1.6969E+00   5.0000E+01
       1     33     15       1       33    2.5000E+02   1.2000E+01   1.0000E-03   1.3262E+00   5.0000E+01
       1     34     15       1       34    2.5000E+02   1.1750E+01   1.0000E-03   1.9292E+00   5.0000E+01
       1     35     15       1       35    2.5000E+02   1.1500E+01   1.0000E-03   1.6779E+00   5.0000E+01
       1     36     15       1       36    2.5000E+02   1.1250E+01   1.0000E-03   1.2960E+00   5.0000E+01
       1     37     15       1       37    2.5000E+02   1.1000E+01   1.0000E-03   1.8835E+00   5.0000E+01
       1     38     15       1       38    2.5000E+02   1.0750E+01   1.0000E-03   1.8718E+00   5.0000E+01
       1     39     15       1       39    2.5000E+02   1.0500E+01   1.0000E-03   1.1449E+00   5.0000E+01






   1 GAGING STATION WAS SPECIFIED.
     (Lakes are identified by a negative value of the Lake Number)
     RECORDS WILL BE WRITTEN TO SEPARATE OUTPUT FILE REPRESENTED BY FOLLOWING UNIT NUMBER:
 Stream Gages:
  GAGE #   SEGMENT   REACH   UNIT   OUTTYPE
       1       1      30     201       4





 PCG -- CONJUGATE-GRADIENT SOLUTION PACKAGE, VERSION 7, 5/2/2005
 MAXIMUM OF    100 CALLS OF SOLUTION ROUTINE
 MAXIMUM OF     25 INTERNAL ITERATIONS PER CALL TO SOLUTION ROUTINE
 MATRIX PRECONDITIONING TYPE :    1
 IHCOFADD option -- When an active cell is surrounded by dry cells, convert
 the cell to dry only if storage and head-dependent boundary flow are 0.



                                    SOLUTION BY THE CONJUGATE-GRADIENT METHOD
                                   -------------------------------------------
                    MAXIMUM NUMBER OF CALLS TO PCG ROUTINE =      100
                        MAXIMUM ITERATIONS PER CALL TO PCG =       25
                               MATRIX PRECONDITIONING TYPE =        1
        RELAXATION FACTOR (ONLY USED WITH PRECOND. TYPE 1) =    0.10000E+01
 PARAMETER OF POLYNOMIAL PRECOND. = 2 (2) OR IS CALCULATED :        2
                         HEAD CHANGE CRITERION FOR CLOSURE =    0.10000E-04
                     RESIDUAL CHANGE CRITERION FOR CLOSURE =    0.10000E+00
            PCG HEAD AND RESIDUAL CHANGE PRINTOUT INTERVAL =        5
     PRINTING FROM SOLVER IS LIMITED(1) OR SUPPRESSED (>1) =        0
                            STEADY-STATE DAMPING PARAMETER =    0.70000E+00
                               TRANSIENT DAMPING PARAMETER =    0.70000E+00

 HYD -- HYDROGRAPH DATA FOR BAS PACKAGE, VERSION 7, 07/14/2006
         INPUT READ FROM UNIT 36
 HYDROGRAPH VALUES WILL BE SAVED ON UNIT: 536
 HYDROGRAPH VALUES AT DRY CELLS WILL BE:  -1.00000E+07

 ARR INTYP  KLAY     XL            YL         HYDLBL
 ----------------------------------------------------------------
 HD   I      1   4.12500E+03   9.12500E+03  HDI001cr03c16       
 HD   I      1   2.62500E+03   9.12500E+03  HDI001cr03c10       
 HD   I      1   2.37500E+03   8.87500E+03  HDI001cr04c9        
 HD   I      1   6.25000E+02   7.37500E+03  HDI001cr10c2        
 HD   I      1   2.87500E+03   6.37500E+03  HDI001cr14c11       
 HD   I      1   4.37500E+03   5.87500E+03  HDI001cr16c17       
 HD   I      1   2.87500E+03   4.37500E+03  HDI001cr22c11       
 HD   I      1   4.12500E+03   4.12500E+03  HDI001cr23c16       
 HD   I      1   1.37500E+03   3.62500E+03  HDI001cr25c5        
 HD   I      1   1.87500E+03   3.12500E+03  HDI001cr27c7        
 HD   I      1   4.12500E+03   2.37500E+03  HDI001cr30c16       
 HD   I      1   2.12500E+03   1.37500E+03  HDI001cr34c8        
 HD   I      1   2.87500E+03   1.12500E+03  HDI001cr35c11       
 HD   I      1   4.12500E+03   9.12500E+03  HDI001fr03c16       
 HD   I      1   2.62500E+03   9.12500E+03  HDI001fr03c10       
 HD   I      1   2.37500E+03   8.87500E+03  HDI001fr04c9        
 HD   I      1   6.25000E+02   7.37500E+03  HDI001fr10c2        
 HD   I      1   2.87500E+03   6.37500E+03  HDI001fr14c11       
 HD   I      1   4.37500E+03   5.87500E+03  HDI001fr16c17       
 HD   I      1   2.87500E+03   4.37500E+03  HDI001fr22c11       
 HD   I      1   4.12500E+03   4.12500E+03  HDI001fr23c16       
 HD   I      1   1.37500E+03   3.62500E+03  HDI001fr25c5        
 HD   I      1   1.87500E+03   3.12500E+03  HDI001fr27c7        
 HD   I      1   4.12500E+03   2.37500E+03  HDI001fr30c16       
 HD   I      1   2.12500E+03   1.37500E+03  HDI001fr34c8        
 HD   I      1   2.87500E+03   1.12500E+03  HDI001fr35c11       
 HD   I      1   6.25000E+02   9.37500E+03  HDI001fr02c02       
 HD   I      1   3.37500E+03   9.62500E+03  HDI001fr01c13       
 HD   I      1   3.87500E+03   7.62500E+03  HDI001fr09c15       
 HD   I      1   2.62500E+03   3.62500E+03  HDI001fr25c10       
 HD   I      1   3.75000E+02   9.62500E+03  HDI001pr01c01       
 HD   I      1   6.25000E+02   9.62500E+03  HDI001pr01c02       
 HD   I      1   8.75000E+02   9.62500E+03  HDI001pr01c03       
 HD   I      1   1.12500E+03   9.62500E+03  HDI001pr01c04       
 HD   I      1   1.37500E+03   9.62500E+03  HDI001pr01c05       
 HD   I      1   1.62500E+03   9.62500E+03  HDI001pr01c06       
 HD   I      1   1.87500E+03   9.62500E+03  HDI001pr01c07       
 HD   I      1   2.12500E+03   9.62500E+03  HDI001pr01c08       
 HD   I      1   2.37500E+03   9.62500E+03  HDI001pr01c09       
 HD   I      1   2.62500E+03   9.62500E+03  HDI001pr01c10       
 HD   I      1   2.87500E+03   9.62500E+03  HDI001pr01c11       
 HD   I      1   3.12500E+03   9.62500E+03  HDI001pr01c12       
 HD   I      1   3.37500E+03   9.62500E+03  HDI001pr01c13       
 HD   I      1   3.62500E+03   9.62500E+03  HDI001pr01c14       
 HD   I      1   3.87500E+03   9.62500E+03  HDI001pr01c15       
 HD   I      1   4.12500E+03   9.62500E+03  HDI001pr01c16       
 HD   I      1   4.37500E+03   9.62500E+03  HDI001pr01c17       
 HD   I      1   4.62500E+03   9.62500E+03  HDI001pr01c18       
 HD   I      1   3.75000E+02   9.37500E+03  HDI001pr02c01       
 HD   I      1   6.25000E+02   9.37500E+03  HDI001pr02c02       
 HD   I      1   8.75000E+02   9.37500E+03  HDI001pr02c03       
 HD   I      1   1.12500E+03   9.37500E+03  HDI001pr02c04       
 HD   I      1   1.37500E+03   9.37500E+03  HDI001pr02c05       
 HD   I      1   1.62500E+03   9.37500E+03  HDI001pr02c06       
 HD   I      1   1.87500E+03   9.37500E+03  HDI001pr02c07       
 HD   I      1   2.12500E+03   9.37500E+03  HDI001pr02c08       
 HD   I      1   2.37500E+03   9.37500E+03  HDI001pr02c09       
 HD   I      1   2.62500E+03   9.37500E+03  HDI001pr02c10       
 HD   I      1   2.87500E+03   9.37500E+03  HDI001pr02c11       
 HD   I      1   3.12500E+03   9.37500E+03  HDI001pr02c12       
 HD   I      1   3.37500E+03   9.37500E+03  HDI001pr02c13       
 HD   I      1   3.62500E+03   9.37500E+03  HDI001pr02c14       
 HD   I      1   3.87500E+03   9.37500E+03  HDI001pr02c15       
 HD   I      1   4.12500E+03   9.37500E+03  HDI001pr02c16       
 HD   I      1   4.37500E+03   9.37500E+03  HDI001pr02c17       
 HD   I      1   4.62500E+03   9.37500E+03  HDI001pr02c18       
 HD   I      1   3.75000E+02   9.12500E+03  HDI001pr03c01       
 HD   I      1   6.25000E+02   9.12500E+03  HDI001pr03c02       
 HD   I      1   8.75000E+02   9.12500E+03  HDI001pr03c03       
 HD   I      1   1.12500E+03   9.12500E+03  HDI001pr03c04       
 HD   I      1   1.37500E+03   9.12500E+03  HDI001pr03c05       
 HD   I      1   1.62500E+03   9.12500E+03  HDI001pr03c06       
 HD   I      1   1.87500E+03   9.12500E+03  HDI001pr03c07       
 HD   I      1   2.12500E+03   9.12500E+03  HDI001pr03c08       
 HD   I      1   2.37500E+03   9.12500E+03  HDI001pr03c09       
 HD   I      1   2.62500E+03   9.12500E+03  HDI001pr03c10       
 HD   I      1   2.87500E+03   9.12500E+03  HDI001pr03c11       
 HD   I      1   3.12500E+03   9.12500E+03  HDI001pr03c12       
 HD   I      1   3.37500E+03   9.12500E+03  HDI001pr03c13       
 HD   I      1   3.62500E+03   9.12500E+03  HDI001pr03c14       
 HD   I      1   3.87500E+03   9.12500E+03  HDI001pr03c15       
 HD   I      1   4.12500E+03   9.12500E+03  HDI001pr03c16       
 HD   I      1   4.37500E+03   9.12500E+03  HDI001pr03c17       
 HD   I      1   4.62500E+03   9.12500E+03  HDI001pr03c18       
 HD   I      1   3.75000E+02   8.87500E+03  HDI001pr04c01       
 HD   I      1   6.25000E+02   8.87500E+03  HDI001pr04c02       
 HD   I      1   8.75000E+02   8.87500E+03  HDI001pr04c03       
 HD   I      1   1.12500E+03   8.87500E+03  HDI001pr04c04       
 HD   I      1   1.37500E+03   8.87500E+03  HDI001pr04c05       
 HD   I      1   1.62500E+03   8.87500E+03  HDI001pr04c06       
 HD   I      1   1.87500E+03   8.87500E+03  HDI001pr04c07       
 HD   I      1   2.12500E+03   8.87500E+03  HDI001pr04c08       
 HD   I      1   2.37500E+03   8.87500E+03  HDI001pr04c09       
 HD   I      1   2.62500E+03   8.87500E+03  HDI001pr04c10       
 HD   I      1   2.87500E+03   8.87500E+03  HDI001pr04c11       
 HD   I      1   3.12500E+03   8.87500E+03  HDI001pr04c12       
 HD   I      1   3.37500E+03   8.87500E+03  HDI001pr04c13       
 HD   I      1   3.62500E+03   8.87500E+03  HDI001pr04c14       
 HD   I      1   3.87500E+03   8.87500E+03  HDI001pr04c15       
 HD   I      1   4.12500E+03   8.87500E+03  HDI001pr04c16       
 HD   I      1   4.37500E+03   8.87500E+03  HDI001pr04c17       
 HD   I      1   4.62500E+03   8.87500E+03  HDI001pr04c18       
 HD   I      1   3.75000E+02   8.62500E+03  HDI001pr05c01       
 HD   I      1   6.25000E+02   8.62500E+03  HDI001pr05c02       
 HD   I      1   8.75000E+02   8.62500E+03  HDI001pr05c03       
 HD   I      1   1.12500E+03   8.62500E+03  HDI001pr05c04       
 HD   I      1   1.37500E+03   8.62500E+03  HDI001pr05c05       
 HD   I      1   1.62500E+03   8.62500E+03  HDI001pr05c06       
 HD   I      1   1.87500E+03   8.62500E+03  HDI001pr05c07       
 HD   I      1   2.12500E+03   8.62500E+03  HDI001pr05c08       
 HD   I      1   2.37500E+03   8.62500E+03  HDI001pr05c09       
 HD   I      1   2.62500E+03   8.62500E+03  HDI001pr05c10       
 HD   I      1   2.87500E+03   8.62500E+03  HDI001pr05c11       
 HD   I      1   3.12500E+03   8.62500E+03  HDI001pr05c12       
 HD   I      1   3.37500E+03   8.62500E+03  HDI001pr05c13       
 HD   I      1   3.62500E+03   8.62500E+03  HDI001pr05c14       
 HD   I      1   3.87500E+03   8.62500E+03  HDI001pr05c15       
 HD   I      1   4.12500E+03   8.62500E+03  HDI001pr05c16       
 HD   I      1   4.37500E+03   8.62500E+03  HDI001pr05c17       
 HD   I      1   4.62500E+03   8.62500E+03  HDI001pr05c18       
 HD   I      1   3.75000E+02   8.37500E+03  HDI001pr06c01       
 HD   I      1   6.25000E+02   8.37500E+03  HDI001pr06c02       
 HD   I      1   8.75000E+02   8.37500E+03  HDI001pr06c03       
 HD   I      1   1.12500E+03   8.37500E+03  HDI001pr06c04       
 HD   I      1   1.37500E+03   8.37500E+03  HDI001pr06c05       
 HD   I      1   1.62500E+03   8.37500E+03  HDI001pr06c06       
 HD   I      1   1.87500E+03   8.37500E+03  HDI001pr06c07       
 HD   I      1   2.12500E+03   8.37500E+03  HDI001pr06c08       
 HD   I      1   2.37500E+03   8.37500E+03  HDI001pr06c09       
 HD   I      1   2.62500E+03   8.37500E+03  HDI001pr06c10       
 HD   I      1   2.87500E+03   8.37500E+03  HDI001pr06c11       
 HD   I      1   3.12500E+03   8.37500E+03  HDI001pr06c12       
 HD   I      1   3.37500E+03   8.37500E+03  HDI001pr06c13       
 HD   I      1   3.62500E+03   8.37500E+03  HDI001pr06c14       
 HD   I      1   3.87500E+03   8.37500E+03  HDI001pr06c15       
 HD   I      1   4.12500E+03   8.37500E+03  HDI001pr06c16       
 HD   I      1   4.37500E+03   8.37500E+03  HDI001pr06c17       
 HD   I      1   4.62500E+03   8.37500E+03  HDI001pr06c18       
 HD   I      1   3.75000E+02   8.12500E+03  HDI001pr07c01       
 HD   I      1   6.25000E+02   8.12500E+03  HDI001pr07c02       
 HD   I      1   8.75000E+02   8.12500E+03  HDI001pr07c03       
 HD   I      1   1.12500E+03   8.12500E+03  HDI001pr07c04       
 HD   I      1   1.37500E+03   8.12500E+03  HDI001pr07c05       
 HD   I      1   1.62500E+03   8.12500E+03  HDI001pr07c06       
 HD   I      1   1.87500E+03   8.12500E+03  HDI001pr07c07       
 HD   I      1   2.12500E+03   8.12500E+03  HDI001pr07c08       
 HD   I      1   2.37500E+03   8.12500E+03  HDI001pr07c09       
 HD   I      1   2.62500E+03   8.12500E+03  HDI001pr07c10       
 HD   I      1   2.87500E+03   8.12500E+03  HDI001pr07c11       
 HD   I      1   3.12500E+03   8.12500E+03  HDI001pr07c12       
 HD   I      1   3.37500E+03   8.12500E+03  HDI001pr07c13       
 HD   I      1   3.62500E+03   8.12500E+03  HDI001pr07c14       
 HD   I      1   3.87500E+03   8.12500E+03  HDI001pr07c15       
 HD   I      1   4.12500E+03   8.12500E+03  HDI001pr07c16       
 HD   I      1   4.37500E+03   8.12500E+03  HDI001pr07c17       
 HD   I      1   4.62500E+03   8.12500E+03  HDI001pr07c18       
 HD   I      1   3.75000E+02   7.87500E+03  HDI001pr08c01       
 HD   I      1   6.25000E+02   7.87500E+03  HDI001pr08c02       
 HD   I      1   8.75000E+02   7.87500E+03  HDI001pr08c03       
 HD   I      1   1.87500E+03   7.87500E+03  HDI001pr08c07       
 HD   I      1   2.12500E+03   7.87500E+03  HDI001pr08c08       
 HD   I      1   2.37500E+03   7.87500E+03  HDI001pr08c09       
 HD   I      1   2.62500E+03   7.87500E+03  HDI001pr08c10       
 HD   I      1   2.87500E+03   7.87500E+03  HDI001pr08c11       
 HD   I      1   3.12500E+03   7.87500E+03  HDI001pr08c12       
 HD   I      1   3.37500E+03   7.87500E+03  HDI001pr08c13       
 HD   I      1   3.62500E+03   7.87500E+03  HDI001pr08c14       
 HD   I      1   3.87500E+03   7.87500E+03  HDI001pr08c15       
 HD   I      1   4.12500E+03   7.87500E+03  HDI001pr08c16       
 HD   I      1   4.37500E+03   7.87500E+03  HDI001pr08c17       
 HD   I      1   4.62500E+03   7.87500E+03  HDI001pr08c18       
 HD   I      1   3.75000E+02   7.62500E+03  HDI001pr09c01       
 HD   I      1   6.25000E+02   7.62500E+03  HDI001pr09c02       
 HD   I      1   8.75000E+02   7.62500E+03  HDI001pr09c03       
 HD   I      1   2.12500E+03   7.62500E+03  HDI001pr09c08       
 HD   I      1   2.37500E+03   7.62500E+03  HDI001pr09c09       
 HD   I      1   2.62500E+03   7.62500E+03  HDI001pr09c10       
 HD   I      1   2.87500E+03   7.62500E+03  HDI001pr09c11       
 HD   I      1   3.12500E+03   7.62500E+03  HDI001pr09c12       
 HD   I      1   3.37500E+03   7.62500E+03  HDI001pr09c13       
 HD   I      1   3.62500E+03   7.62500E+03  HDI001pr09c14       
 HD   I      1   3.87500E+03   7.62500E+03  HDI001pr09c15       
 HD   I      1   4.12500E+03   7.62500E+03  HDI001pr09c16       
 HD   I      1   4.37500E+03   7.62500E+03  HDI001pr09c17       
 HD   I      1   4.62500E+03   7.62500E+03  HDI001pr09c18       
 HD   I      1   3.75000E+02   7.37500E+03  HDI001pr10c01       
 HD   I      1   6.25000E+02   7.37500E+03  HDI001pr10c02       
 HD   I      1   8.75000E+02   7.37500E+03  HDI001pr10c03       
 HD   I      1   2.12500E+03   7.37500E+03  HDI001pr10c08       
 HD   I      1   2.37500E+03   7.37500E+03  HDI001pr10c09       
 HD   I      1   2.62500E+03   7.37500E+03  HDI001pr10c10       
 HD   I      1   2.87500E+03   7.37500E+03  HDI001pr10c11       
 HD   I      1   3.12500E+03   7.37500E+03  HDI001pr10c12       
 HD   I      1   3.37500E+03   7.37500E+03  HDI001pr10c13       
 HD   I      1   3.62500E+03   7.37500E+03  HDI001pr10c14       
 HD   I      1   3.87500E+03   7.37500E+03  HDI001pr10c15       
 HD   I      1   4.12500E+03   7.37500E+03  HDI001pr10c16       
 HD   I      1   4.37500E+03   7.37500E+03  HDI001pr10c17       
 HD   I      1   4.62500E+03   7.37500E+03  HDI001pr10c18       
 HD   I      1   3.75000E+02   7.12500E+03  HDI001pr11c01       
 HD   I      1   6.25000E+02   7.12500E+03  HDI001pr11c02       
 HD   I      1   8.75000E+02   7.12500E+03  HDI001pr11c03       
 HD   I      1   2.12500E+03   7.12500E+03  HDI001pr11c08       
 HD   I      1   2.37500E+03   7.12500E+03  HDI001pr11c09       
 HD   I      1   2.62500E+03   7.12500E+03  HDI001pr11c10       
 HD   I      1   2.87500E+03   7.12500E+03  HDI001pr11c11       
 HD   I      1   3.12500E+03   7.12500E+03  HDI001pr11c12       
 HD   I      1   3.37500E+03   7.12500E+03  HDI001pr11c13       
 HD   I      1   3.62500E+03   7.12500E+03  HDI001pr11c14       
 HD   I      1   3.87500E+03   7.12500E+03  HDI001pr11c15       
 HD   I      1   4.12500E+03   7.12500E+03  HDI001pr11c16       
 HD   I      1   4.37500E+03   7.12500E+03  HDI001pr11c17       
 HD   I      1   4.62500E+03   7.12500E+03  HDI001pr11c18       
 HD   I      1   3.75000E+02   6.87500E+03  HDI001pr12c01       
 HD   I      1   6.25000E+02   6.87500E+03  HDI001pr12c02       
 HD   I      1   8.75000E+02   6.87500E+03  HDI001pr12c03       
 HD   I      1   2.12500E+03   6.87500E+03  HDI001pr12c08       
 HD   I      1   2.37500E+03   6.87500E+03  HDI001pr12c09       
 HD   I      1   2.62500E+03   6.87500E+03  HDI001pr12c10       
 HD   I      1   2.87500E+03   6.87500E+03  HDI001pr12c11       
 HD   I      1   3.12500E+03   6.87500E+03  HDI001pr12c12       
 HD   I      1   3.37500E+03   6.87500E+03  HDI001pr12c13       
 HD   I      1   3.62500E+03   6.87500E+03  HDI001pr12c14       
 HD   I      1   3.87500E+03   6.87500E+03  HDI001pr12c15       
 HD   I      1   4.12500E+03   6.87500E+03  HDI001pr12c16       
 HD   I      1   4.37500E+03   6.87500E+03  HDI001pr12c17       
 HD   I      1   4.62500E+03   6.87500E+03  HDI001pr12c18       
 HD   I      1   3.75000E+02   6.62500E+03  HDI001pr13c01       
 HD   I      1   6.25000E+02   6.62500E+03  HDI001pr13c02       
 HD   I      1   8.75000E+02   6.62500E+03  HDI001pr13c03       
 HD   I      1   2.12500E+03   6.62500E+03  HDI001pr13c08       
 HD   I      1   2.37500E+03   6.62500E+03  HDI001pr13c09       
 HD   I      1   2.62500E+03   6.62500E+03  HDI001pr13c10       
 HD   I      1   2.87500E+03   6.62500E+03  HDI001pr13c11       
 HD   I      1   3.12500E+03   6.62500E+03  HDI001pr13c12       
 HD   I      1   3.37500E+03   6.62500E+03  HDI001pr13c13       
 HD   I      1   3.62500E+03   6.62500E+03  HDI001pr13c14       
 HD   I      1   3.87500E+03   6.62500E+03  HDI001pr13c15       
 HD   I      1   4.12500E+03   6.62500E+03  HDI001pr13c16       
 HD   I      1   4.37500E+03   6.62500E+03  HDI001pr13c17       
 HD   I      1   4.62500E+03   6.62500E+03  HDI001pr13c18       
 HD   I      1   3.75000E+02   6.37500E+03  HDI001pr14c01       
 HD   I      1   6.25000E+02   6.37500E+03  HDI001pr14c02       
 HD   I      1   8.75000E+02   6.37500E+03  HDI001pr14c03       
 HD   I      1   2.12500E+03   6.37500E+03  HDI001pr14c08       
 HD   I      1   2.37500E+03   6.37500E+03  HDI001pr14c09       
 HD   I      1   2.62500E+03   6.37500E+03  HDI001pr14c10       
 HD   I      1   2.87500E+03   6.37500E+03  HDI001pr14c11       
 HD   I      1   3.12500E+03   6.37500E+03  HDI001pr14c12       
 HD   I      1   3.37500E+03   6.37500E+03  HDI001pr14c13       
 HD   I      1   3.62500E+03   6.37500E+03  HDI001pr14c14       
 HD   I      1   3.87500E+03   6.37500E+03  HDI001pr14c15       
 HD   I      1   4.12500E+03   6.37500E+03  HDI001pr14c16       
 HD   I      1   4.37500E+03   6.37500E+03  HDI001pr14c17       
 HD   I      1   4.62500E+03   6.37500E+03  HDI001pr14c18       
 HD   I      1   3.75000E+02   6.12500E+03  HDI001pr15c01       
 HD   I      1   6.25000E+02   6.12500E+03  HDI001pr15c02       
 HD   I      1   8.75000E+02   6.12500E+03  HDI001pr15c03       
 HD   I      1   2.12500E+03   6.12500E+03  HDI001pr15c08       
 HD   I      1   2.37500E+03   6.12500E+03  HDI001pr15c09       
 HD   I      1   2.62500E+03   6.12500E+03  HDI001pr15c10       
 HD   I      1   2.87500E+03   6.12500E+03  HDI001pr15c11       
 HD   I      1   3.12500E+03   6.12500E+03  HDI001pr15c12       
 HD   I      1   3.37500E+03   6.12500E+03  HDI001pr15c13       
 HD   I      1   3.62500E+03   6.12500E+03  HDI001pr15c14       
 HD   I      1   3.87500E+03   6.12500E+03  HDI001pr15c15       
 HD   I      1   4.12500E+03   6.12500E+03  HDI001pr15c16       
 HD   I      1   4.37500E+03   6.12500E+03  HDI001pr15c17       
 HD   I      1   4.62500E+03   6.12500E+03  HDI001pr15c18       
 HD   I      1   3.75000E+02   5.87500E+03  HDI001pr16c01       
 HD   I      1   6.25000E+02   5.87500E+03  HDI001pr16c02       
 HD   I      1   8.75000E+02   5.87500E+03  HDI001pr16c03       
 HD   I      1   2.12500E+03   5.87500E+03  HDI001pr16c08       
 HD   I      1   2.37500E+03   5.87500E+03  HDI001pr16c09       
 HD   I      1   2.62500E+03   5.87500E+03  HDI001pr16c10       
 HD   I      1   2.87500E+03   5.87500E+03  HDI001pr16c11       
 HD   I      1   3.12500E+03   5.87500E+03  HDI001pr16c12       
 HD   I      1   3.37500E+03   5.87500E+03  HDI001pr16c13       
 HD   I      1   3.62500E+03   5.87500E+03  HDI001pr16c14       
 HD   I      1   3.87500E+03   5.87500E+03  HDI001pr16c15       
 HD   I      1   4.12500E+03   5.87500E+03  HDI001pr16c16       
 HD   I      1   4.37500E+03   5.87500E+03  HDI001pr16c17       
 HD   I      1   4.62500E+03   5.87500E+03  HDI001pr16c18       
 HD   I      1   3.75000E+02   5.62500E+03  HDI001pr17c01       
 HD   I      1   6.25000E+02   5.62500E+03  HDI001pr17c02       
 HD   I      1   8.75000E+02   5.62500E+03  HDI001pr17c03       
 HD   I      1   2.12500E+03   5.62500E+03  HDI001pr17c08       
 HD   I      1   2.37500E+03   5.62500E+03  HDI001pr17c09       
 HD   I      1   2.62500E+03   5.62500E+03  HDI001pr17c10       
 HD   I      1   2.87500E+03   5.62500E+03  HDI001pr17c11       
 HD   I      1   3.12500E+03   5.62500E+03  HDI001pr17c12       
 HD   I      1   3.37500E+03   5.62500E+03  HDI001pr17c13       
 HD   I      1   3.62500E+03   5.62500E+03  HDI001pr17c14       
 HD   I      1   3.87500E+03   5.62500E+03  HDI001pr17c15       
 HD   I      1   4.12500E+03   5.62500E+03  HDI001pr17c16       
 HD   I      1   4.37500E+03   5.62500E+03  HDI001pr17c17       
 HD   I      1   4.62500E+03   5.62500E+03  HDI001pr17c18       
 HD   I      1   3.75000E+02   5.37500E+03  HDI001pr18c01       
 HD   I      1   6.25000E+02   5.37500E+03  HDI001pr18c02       
 HD   I      1   8.75000E+02   5.37500E+03  HDI001pr18c03       
 HD   I      1   2.12500E+03   5.37500E+03  HDI001pr18c08       
 HD   I      1   2.37500E+03   5.37500E+03  HDI001pr18c09       
 HD   I      1   2.62500E+03   5.37500E+03  HDI001pr18c10       
 HD   I      1   2.87500E+03   5.37500E+03  HDI001pr18c11       
 HD   I      1   3.12500E+03   5.37500E+03  HDI001pr18c12       
 HD   I      1   3.37500E+03   5.37500E+03  HDI001pr18c13       
 HD   I      1   3.62500E+03   5.37500E+03  HDI001pr18c14       
 HD   I      1   3.87500E+03   5.37500E+03  HDI001pr18c15       
 HD   I      1   4.12500E+03   5.37500E+03  HDI001pr18c16       
 HD   I      1   4.37500E+03   5.37500E+03  HDI001pr18c17       
 HD   I      1   4.62500E+03   5.37500E+03  HDI001pr18c18       
 HD   I      1   3.75000E+02   5.12500E+03  HDI001pr19c01       
 HD   I      1   6.25000E+02   5.12500E+03  HDI001pr19c02       
 HD   I      1   8.75000E+02   5.12500E+03  HDI001pr19c03       
 HD   I      1   2.12500E+03   5.12500E+03  HDI001pr19c08       
 HD   I      1   2.37500E+03   5.12500E+03  HDI001pr19c09       
 HD   I      1   2.62500E+03   5.12500E+03  HDI001pr19c10       
 HD   I      1   2.87500E+03   5.12500E+03  HDI001pr19c11       
 HD   I      1   3.12500E+03   5.12500E+03  HDI001pr19c12       
 HD   I      1   3.37500E+03   5.12500E+03  HDI001pr19c13       
 HD   I      1   3.62500E+03   5.12500E+03  HDI001pr19c14       
 HD   I      1   3.87500E+03   5.12500E+03  HDI001pr19c15       
 HD   I      1   4.12500E+03   5.12500E+03  HDI001pr19c16       
 HD   I      1   4.37500E+03   5.12500E+03  HDI001pr19c17       
 HD   I      1   4.62500E+03   5.12500E+03  HDI001pr19c18       
 HD   I      1   3.75000E+02   4.87500E+03  HDI001pr20c01       
 HD   I      1   6.25000E+02   4.87500E+03  HDI001pr20c02       
 HD   I      1   8.75000E+02   4.87500E+03  HDI001pr20c03       
 HD   I      1   2.12500E+03   4.87500E+03  HDI001pr20c08       
 HD   I      1   2.37500E+03   4.87500E+03  HDI001pr20c09       
 HD   I      1   2.62500E+03   4.87500E+03  HDI001pr20c10       
 HD   I      1   2.87500E+03   4.87500E+03  HDI001pr20c11       
 HD   I      1   3.12500E+03   4.87500E+03  HDI001pr20c12       
 HD   I      1   3.37500E+03   4.87500E+03  HDI001pr20c13       
 HD   I      1   3.62500E+03   4.87500E+03  HDI001pr20c14       
 HD   I      1   3.87500E+03   4.87500E+03  HDI001pr20c15       
 HD   I      1   4.12500E+03   4.87500E+03  HDI001pr20c16       
 HD   I      1   4.37500E+03   4.87500E+03  HDI001pr20c17       
 HD   I      1   4.62500E+03   4.87500E+03  HDI001pr20c18       
 HD   I      1   3.75000E+02   4.62500E+03  HDI001pr21c01       
 HD   I      1   6.25000E+02   4.62500E+03  HDI001pr21c02       
 HD   I      1   8.75000E+02   4.62500E+03  HDI001pr21c03       
 HD   I      1   1.62500E+03   4.62500E+03  HDI001pr21c06       
 HD   I      1   1.87500E+03   4.62500E+03  HDI001pr21c07       
 HD   I      1   2.12500E+03   4.62500E+03  HDI001pr21c08       
 HD   I      1   2.37500E+03   4.62500E+03  HDI001pr21c09       
 HD   I      1   2.62500E+03   4.62500E+03  HDI001pr21c10       
 HD   I      1   2.87500E+03   4.62500E+03  HDI001pr21c11       
 HD   I      1   3.12500E+03   4.62500E+03  HDI001pr21c12       
 HD   I      1   3.37500E+03   4.62500E+03  HDI001pr21c13       
 HD   I      1   3.62500E+03   4.62500E+03  HDI001pr21c14       
 HD   I      1   3.87500E+03   4.62500E+03  HDI001pr21c15       
 HD   I      1   4.12500E+03   4.62500E+03  HDI001pr21c16       
 HD   I      1   4.37500E+03   4.62500E+03  HDI001pr21c17       
 HD   I      1   4.62500E+03   4.62500E+03  HDI001pr21c18       
 HD   I      1   3.75000E+02   4.37500E+03  HDI001pr22c01       
 HD   I      1   6.25000E+02   4.37500E+03  HDI001pr22c02       
 HD   I      1   8.75000E+02   4.37500E+03  HDI001pr22c03       
 HD   I      1   1.12500E+03   4.37500E+03  HDI001pr22c04       
 HD   I      1   1.62500E+03   4.37500E+03  HDI001pr22c06       
 HD   I      1   1.87500E+03   4.37500E+03  HDI001pr22c07       
 HD   I      1   2.12500E+03   4.37500E+03  HDI001pr22c08       
 HD   I      1   2.37500E+03   4.37500E+03  HDI001pr22c09       
 HD   I      1   2.62500E+03   4.37500E+03  HDI001pr22c10       
 HD   I      1   2.87500E+03   4.37500E+03  HDI001pr22c11       
 HD   I      1   3.12500E+03   4.37500E+03  HDI001pr22c12       
 HD   I      1   3.37500E+03   4.37500E+03  HDI001pr22c13       
 HD   I      1   3.62500E+03   4.37500E+03  HDI001pr22c14       
 HD   I      1   3.87500E+03   4.37500E+03  HDI001pr22c15       
 HD   I      1   4.12500E+03   4.37500E+03  HDI001pr22c16       
 HD   I      1   4.37500E+03   4.37500E+03  HDI001pr22c17       
 HD   I      1   4.62500E+03   4.37500E+03  HDI001pr22c18       
 HD   I      1   3.75000E+02   4.12500E+03  HDI001pr23c01       
 HD   I      1   6.25000E+02   4.12500E+03  HDI001pr23c02       
 HD   I      1   8.75000E+02   4.12500E+03  HDI001pr23c03       
 HD   I      1   1.12500E+03   4.12500E+03  HDI001pr23c04       
 HD   I      1   1.37500E+03   4.12500E+03  HDI001pr23c05       
 HD   I      1   1.62500E+03   4.12500E+03  HDI001pr23c06       
 HD   I      1   1.87500E+03   4.12500E+03  HDI001pr23c07       
 HD   I      1   2.12500E+03   4.12500E+03  HDI001pr23c08       
 HD   I      1   2.37500E+03   4.12500E+03  HDI001pr23c09       
 HD   I      1   2.62500E+03   4.12500E+03  HDI001pr23c10       
 HD   I      1   2.87500E+03   4.12500E+03  HDI001pr23c11       
 HD   I      1   3.12500E+03   4.12500E+03  HDI001pr23c12       
 HD   I      1   3.37500E+03   4.12500E+03  HDI001pr23c13       
 HD   I      1   3.62500E+03   4.12500E+03  HDI001pr23c14       
 HD   I      1   3.87500E+03   4.12500E+03  HDI001pr23c15       
 HD   I      1   4.12500E+03   4.12500E+03  HDI001pr23c16       
 HD   I      1   4.37500E+03   4.12500E+03  HDI001pr23c17       
 HD   I      1   4.62500E+03   4.12500E+03  HDI001pr23c18       
 HD   I      1   3.75000E+02   3.87500E+03  HDI001pr24c01       
 HD   I      1   6.25000E+02   3.87500E+03  HDI001pr24c02       
 HD   I      1   8.75000E+02   3.87500E+03  HDI001pr24c03       
 HD   I      1   1.12500E+03   3.87500E+03  HDI001pr24c04       
 HD   I      1   1.37500E+03   3.87500E+03  HDI001pr24c05       
 HD   I      1   1.62500E+03   3.87500E+03  HDI001pr24c06       
 HD   I      1   1.87500E+03   3.87500E+03  HDI001pr24c07       
 HD   I      1   2.12500E+03   3.87500E+03  HDI001pr24c08       
 HD   I      1   2.37500E+03   3.87500E+03  HDI001pr24c09       
 HD   I      1   2.62500E+03   3.87500E+03  HDI001pr24c10       
 HD   I      1   2.87500E+03   3.87500E+03  HDI001pr24c11       
 HD   I      1   3.12500E+03   3.87500E+03  HDI001pr24c12       
 HD   I      1   3.37500E+03   3.87500E+03  HDI001pr24c13       
 HD   I      1   3.62500E+03   3.87500E+03  HDI001pr24c14       
 HD   I      1   3.87500E+03   3.87500E+03  HDI001pr24c15       
 HD   I      1   4.12500E+03   3.87500E+03  HDI001pr24c16       
 HD   I      1   4.37500E+03   3.87500E+03  HDI001pr24c17       
 HD   I      1   4.62500E+03   3.87500E+03  HDI001pr24c18       
 HD   I      1   3.75000E+02   3.62500E+03  HDI001pr25c01       
 HD   I      1   6.25000E+02   3.62500E+03  HDI001pr25c02       
 HD   I      1   8.75000E+02   3.62500E+03  HDI001pr25c03       
 HD   I      1   1.12500E+03   3.62500E+03  HDI001pr25c04       
 HD   I      1   1.37500E+03   3.62500E+03  HDI001pr25c05       
 HD   I      1   1.62500E+03   3.62500E+03  HDI001pr25c06       
 HD   I      1   1.87500E+03   3.62500E+03  HDI001pr25c07       
 HD   I      1   2.12500E+03   3.62500E+03  HDI001pr25c08       
 HD   I      1   2.37500E+03   3.62500E+03  HDI001pr25c09       
 HD   I      1   2.62500E+03   3.62500E+03  HDI001pr25c10       
 HD   I      1   2.87500E+03   3.62500E+03  HDI001pr25c11       
 HD   I      1   3.12500E+03   3.62500E+03  HDI001pr25c12       
 HD   I      1   3.37500E+03   3.62500E+03  HDI001pr25c13       
 HD   I      1   3.62500E+03   3.62500E+03  HDI001pr25c14       
 HD   I      1   3.87500E+03   3.62500E+03  HDI001pr25c15       
 HD   I      1   4.12500E+03   3.62500E+03  HDI001pr25c16       
 HD   I      1   4.37500E+03   3.62500E+03  HDI001pr25c17       
 HD   I      1   4.62500E+03   3.62500E+03  HDI001pr25c18       
 HD   I      1   3.75000E+02   3.37500E+03  HDI001pr26c01       
 HD   I      1   6.25000E+02   3.37500E+03  HDI001pr26c02       
 HD   I      1   8.75000E+02   3.37500E+03  HDI001pr26c03       
 HD   I      1   1.12500E+03   3.37500E+03  HDI001pr26c04       
 HD   I      1   1.37500E+03   3.37500E+03  HDI001pr26c05       
 HD   I      1   1.62500E+03   3.37500E+03  HDI001pr26c06       
 HD   I      1   1.87500E+03   3.37500E+03  HDI001pr26c07       
 HD   I      1   2.12500E+03   3.37500E+03  HDI001pr26c08       
 HD   I      1   2.37500E+03   3.37500E+03  HDI001pr26c09       
 HD   I      1   2.62500E+03   3.37500E+03  HDI001pr26c10       
 HD   I      1   2.87500E+03   3.37500E+03  HDI001pr26c11       
 HD   I      1   3.12500E+03   3.37500E+03  HDI001pr26c12       
 HD   I      1   3.37500E+03   3.37500E+03  HDI001pr26c13       
 HD   I      1   3.62500E+03   3.37500E+03  HDI001pr26c14       
 HD   I      1   3.87500E+03   3.37500E+03  HDI001pr26c15       
 HD   I      1   4.12500E+03   3.37500E+03  HDI001pr26c16       
 HD   I      1   4.37500E+03   3.37500E+03  HDI001pr26c17       
 HD   I      1   4.62500E+03   3.37500E+03  HDI001pr26c18       
 HD   I      1   3.75000E+02   3.12500E+03  HDI001pr27c01       
 HD   I      1   6.25000E+02   3.12500E+03  HDI001pr27c02       
 HD   I      1   8.75000E+02   3.12500E+03  HDI001pr27c03       
 HD   I      1   1.12500E+03   3.12500E+03  HDI001pr27c04       
 HD   I      1   1.37500E+03   3.12500E+03  HDI001pr27c05       
 HD   I      1   1.62500E+03   3.12500E+03  HDI001pr27c06       
 HD   I      1   1.87500E+03   3.12500E+03  HDI001pr27c07       
 HD   I      1   2.12500E+03   3.12500E+03  HDI001pr27c08       
 HD   I      1   2.37500E+03   3.12500E+03  HDI001pr27c09       
 HD   I      1   2.62500E+03   3.12500E+03  HDI001pr27c10       
 HD   I      1   2.87500E+03   3.12500E+03  HDI001pr27c11       
 HD   I      1   3.12500E+03   3.12500E+03  HDI001pr27c12       
 HD   I      1   3.37500E+03   3.12500E+03  HDI001pr27c13       
 HD   I      1   3.62500E+03   3.12500E+03  HDI001pr27c14       
 HD   I      1   3.87500E+03   3.12500E+03  HDI001pr27c15       
 HD   I      1   4.12500E+03   3.12500E+03  HDI001pr27c16       
 HD   I      1   4.37500E+03   3.12500E+03  HDI001pr27c17       
 HD   I      1   4.62500E+03   3.12500E+03  HDI001pr27c18       
 HD   I      1   3.75000E+02   2.87500E+03  HDI001pr28c01       
 HD   I      1   6.25000E+02   2.87500E+03  HDI001pr28c02       
 HD   I      1   8.75000E+02   2.87500E+03  HDI001pr28c03       
 HD   I      1   1.12500E+03   2.87500E+03  HDI001pr28c04       
 HD   I      1   1.37500E+03   2.87500E+03  HDI001pr28c05       
 HD   I      1   1.62500E+03   2.87500E+03  HDI001pr28c06       
 HD   I      1   1.87500E+03   2.87500E+03  HDI001pr28c07       
 HD   I      1   2.12500E+03   2.87500E+03  HDI001pr28c08       
 HD   I      1   2.37500E+03   2.87500E+03  HDI001pr28c09       
 HD   I      1   2.62500E+03   2.87500E+03  HDI001pr28c10       
 HD   I      1   2.87500E+03   2.87500E+03  HDI001pr28c11       
 HD   I      1   3.12500E+03   2.87500E+03  HDI001pr28c12       
 HD   I      1   3.37500E+03   2.87500E+03  HDI001pr28c13       
 HD   I      1   3.62500E+03   2.87500E+03  HDI001pr28c14       
 HD   I      1   3.87500E+03   2.87500E+03  HDI001pr28c15       
 HD   I      1   4.12500E+03   2.87500E+03  HDI001pr28c16       
 HD   I      1   4.37500E+03   2.87500E+03  HDI001pr28c17       
 HD   I      1   4.62500E+03   2.87500E+03  HDI001pr28c18       
 HD   I      1   3.75000E+02   2.62500E+03  HDI001pr29c01       
 HD   I      1   6.25000E+02   2.62500E+03  HDI001pr29c02       
 HD   I      1   8.75000E+02   2.62500E+03  HDI001pr29c03       
 HD   I      1   1.12500E+03   2.62500E+03  HDI001pr29c04       
 HD   I      1   1.37500E+03   2.62500E+03  HDI001pr29c05       
 HD   I      1   1.62500E+03   2.62500E+03  HDI001pr29c06       
 HD   I      1   1.87500E+03   2.62500E+03  HDI001pr29c07       
 HD   I      1   2.12500E+03   2.62500E+03  HDI001pr29c08       
 HD   I      1   2.37500E+03   2.62500E+03  HDI001pr29c09       
 HD   I      1   2.62500E+03   2.62500E+03  HDI001pr29c10       
 HD   I      1   2.87500E+03   2.62500E+03  HDI001pr29c11       
 HD   I      1   3.12500E+03   2.62500E+03  HDI001pr29c12       
 HD   I      1   3.37500E+03   2.62500E+03  HDI001pr29c13       
 HD   I      1   3.62500E+03   2.62500E+03  HDI001pr29c14       
 HD   I      1   3.87500E+03   2.62500E+03  HDI001pr29c15       
 HD   I      1   4.12500E+03   2.62500E+03  HDI001pr29c16       
 HD   I      1   4.37500E+03   2.62500E+03  HDI001pr29c17       
 HD   I      1   4.62500E+03   2.62500E+03  HDI001pr29c18       
 HD   I      1   3.75000E+02   2.37500E+03  HDI001pr30c01       
 HD   I      1   6.25000E+02   2.37500E+03  HDI001pr30c02       
 HD   I      1   8.75000E+02   2.37500E+03  HDI001pr30c03       
 HD   I      1   1.12500E+03   2.37500E+03  HDI001pr30c04       
 HD   I      1   1.37500E+03   2.37500E+03  HDI001pr30c05       
 HD   I      1   1.62500E+03   2.37500E+03  HDI001pr30c06       
 HD   I      1   1.87500E+03   2.37500E+03  HDI001pr30c07       
 HD   I      1   2.12500E+03   2.37500E+03  HDI001pr30c08       
 HD   I      1   2.37500E+03   2.37500E+03  HDI001pr30c09       
 HD   I      1   2.62500E+03   2.37500E+03  HDI001pr30c10       
 HD   I      1   2.87500E+03   2.37500E+03  HDI001pr30c11       
 HD   I      1   3.12500E+03   2.37500E+03  HDI001pr30c12       
 HD   I      1   3.37500E+03   2.37500E+03  HDI001pr30c13       
 HD   I      1   3.62500E+03   2.37500E+03  HDI001pr30c14       
 HD   I      1   3.87500E+03   2.37500E+03  HDI001pr30c15       
 HD   I      1   4.12500E+03   2.37500E+03  HDI001pr30c16       
 HD   I      1   4.37500E+03   2.37500E+03  HDI001pr30c17       
 HD   I      1   4.62500E+03   2.37500E+03  HDI001pr30c18       
 HD   I      1   3.75000E+02   2.12500E+03  HDI001pr31c01       
 HD   I      1   6.25000E+02   2.12500E+03  HDI001pr31c02       
 HD   I      1   8.75000E+02   2.12500E+03  HDI001pr31c03       
 HD   I      1   1.12500E+03   2.12500E+03  HDI001pr31c04       
 HD   I      1   1.37500E+03   2.12500E+03  HDI001pr31c05       
 HD   I      1   1.62500E+03   2.12500E+03  HDI001pr31c06       
 HD   I      1   1.87500E+03   2.12500E+03  HDI001pr31c07       
 HD   I      1   2.12500E+03   2.12500E+03  HDI001pr31c08       
 HD   I      1   2.37500E+03   2.12500E+03  HDI001pr31c09       
 HD   I      1   2.62500E+03   2.12500E+03  HDI001pr31c10       
 HD   I      1   2.87500E+03   2.12500E+03  HDI001pr31c11       
 HD   I      1   3.12500E+03   2.12500E+03  HDI001pr31c12       
 HD   I      1   3.37500E+03   2.12500E+03  HDI001pr31c13       
 HD   I      1   3.62500E+03   2.12500E+03  HDI001pr31c14       
 HD   I      1   3.87500E+03   2.12500E+03  HDI001pr31c15       
 HD   I      1   4.12500E+03   2.12500E+03  HDI001pr31c16       
 HD   I      1   4.37500E+03   2.12500E+03  HDI001pr31c17       
 HD   I      1   4.62500E+03   2.12500E+03  HDI001pr31c18       
 HD   I      1   3.75000E+02   1.87500E+03  HDI001pr32c01       
 HD   I      1   6.25000E+02   1.87500E+03  HDI001pr32c02       
 HD   I      1   8.75000E+02   1.87500E+03  HDI001pr32c03       
 HD   I      1   1.12500E+03   1.87500E+03  HDI001pr32c04       
 HD   I      1   1.37500E+03   1.87500E+03  HDI001pr32c05       
 HD   I      1   1.62500E+03   1.87500E+03  HDI001pr32c06       
 HD   I      1   1.87500E+03   1.87500E+03  HDI001pr32c07       
 HD   I      1   2.12500E+03   1.87500E+03  HDI001pr32c08       
 HD   I      1   2.37500E+03   1.87500E+03  HDI001pr32c09       
 HD   I      1   2.62500E+03   1.87500E+03  HDI001pr32c10       
 HD   I      1   2.87500E+03   1.87500E+03  HDI001pr32c11       
 HD   I      1   3.12500E+03   1.87500E+03  HDI001pr32c12       
 HD   I      1   3.37500E+03   1.87500E+03  HDI001pr32c13       
 HD   I      1   3.62500E+03   1.87500E+03  HDI001pr32c14       
 HD   I      1   3.87500E+03   1.87500E+03  HDI001pr32c15       
 HD   I      1   4.12500E+03   1.87500E+03  HDI001pr32c16       
 HD   I      1   4.37500E+03   1.87500E+03  HDI001pr32c17       
 HD   I      1   4.62500E+03   1.87500E+03  HDI001pr32c18       
 HD   I      1   6.25000E+02   1.62500E+03  HDI001pr33c02       
 HD   I      1   8.75000E+02   1.62500E+03  HDI001pr33c03       
 HD   I      1   1.12500E+03   1.62500E+03  HDI001pr33c04       
 HD   I      1   1.37500E+03   1.62500E+03  HDI001pr33c05       
 HD   I      1   1.62500E+03   1.62500E+03  HDI001pr33c06       
 HD   I      1   1.87500E+03   1.62500E+03  HDI001pr33c07       
 HD   I      1   2.12500E+03   1.62500E+03  HDI001pr33c08       
 HD   I      1   2.37500E+03   1.62500E+03  HDI001pr33c09       
 HD   I      1   2.62500E+03   1.62500E+03  HDI001pr33c10       
 HD   I      1   2.87500E+03   1.62500E+03  HDI001pr33c11       
 HD   I      1   3.12500E+03   1.62500E+03  HDI001pr33c12       
 HD   I      1   3.37500E+03   1.62500E+03  HDI001pr33c13       
 HD   I      1   3.62500E+03   1.62500E+03  HDI001pr33c14       
 HD   I      1   3.87500E+03   1.62500E+03  HDI001pr33c15       
 HD   I      1   4.12500E+03   1.62500E+03  HDI001pr33c16       
 HD   I      1   4.37500E+03   1.62500E+03  HDI001pr33c17       
 HD   I      1   4.62500E+03   1.62500E+03  HDI001pr33c18       
 HD   I      1   8.75000E+02   1.37500E+03  HDI001pr34c03       
 HD   I      1   1.12500E+03   1.37500E+03  HDI001pr34c04       
 HD   I      1   1.37500E+03   1.37500E+03  HDI001pr34c05       
 HD   I      1   1.62500E+03   1.37500E+03  HDI001pr34c06       
 HD   I      1   1.87500E+03   1.37500E+03  HDI001pr34c07       
 HD   I      1   2.12500E+03   1.37500E+03  HDI001pr34c08       
 HD   I      1   2.37500E+03   1.37500E+03  HDI001pr34c09       
 HD   I      1   2.62500E+03   1.37500E+03  HDI001pr34c10       
 HD   I      1   2.87500E+03   1.37500E+03  HDI001pr34c11       
 HD   I      1   3.12500E+03   1.37500E+03  HDI001pr34c12       
 HD   I      1   3.37500E+03   1.37500E+03  HDI001pr34c13       
 HD   I      1   3.62500E+03   1.37500E+03  HDI001pr34c14       
 HD   I      1   3.87500E+03   1.37500E+03  HDI001pr34c15       
 HD   I      1   4.12500E+03   1.37500E+03  HDI001pr34c16       
 HD   I      1   4.37500E+03   1.37500E+03  HDI001pr34c17       
 HD   I      1   4.62500E+03   1.37500E+03  HDI001pr34c18       
 HD   I      1   1.12500E+03   1.12500E+03  HDI001pr35c04       
 HD   I      1   1.37500E+03   1.12500E+03  HDI001pr35c05       
 HD   I      1   1.62500E+03   1.12500E+03  HDI001pr35c06       
 HD   I      1   1.87500E+03   1.12500E+03  HDI001pr35c07       
 HD   I      1   2.12500E+03   1.12500E+03  HDI001pr35c08       
 HD   I      1   2.37500E+03   1.12500E+03  HDI001pr35c09       
 HD   I      1   2.62500E+03   1.12500E+03  HDI001pr35c10       
 HD   I      1   2.87500E+03   1.12500E+03  HDI001pr35c11       
 HD   I      1   3.12500E+03   1.12500E+03  HDI001pr35c12       
 HD   I      1   3.37500E+03   1.12500E+03  HDI001pr35c13       
 HD   I      1   3.62500E+03   1.12500E+03  HDI001pr35c14       
 HD   I      1   3.87500E+03   1.12500E+03  HDI001pr35c15       
 HD   I      1   4.12500E+03   1.12500E+03  HDI001pr35c16       
 HD   I      1   4.37500E+03   1.12500E+03  HDI001pr35c17       
 HD   I      1   4.62500E+03   1.12500E+03  HDI001pr35c18       
 HD   I      1   1.12500E+03   8.75000E+02  HDI001pr36c04       
 HD   I      1   1.37500E+03   8.75000E+02  HDI001pr36c05       
 HD   I      1   1.62500E+03   8.75000E+02  HDI001pr36c06       
 HD   I      1   1.87500E+03   8.75000E+02  HDI001pr36c07       
 HD   I      1   2.12500E+03   8.75000E+02  HDI001pr36c08       
 HD   I      1   2.37500E+03   8.75000E+02  HDI001pr36c09       
 HD   I      1   2.62500E+03   8.75000E+02  HDI001pr36c10       
 HD   I      1   2.87500E+03   8.75000E+02  HDI001pr36c11       
 HD   I      1   3.12500E+03   8.75000E+02  HDI001pr36c12       
 HD   I      1   3.37500E+03   8.75000E+02  HDI001pr36c13       
 HD   I      1   3.62500E+03   8.75000E+02  HDI001pr36c14       
 HD   I      1   3.87500E+03   8.75000E+02  HDI001pr36c15       
 HD   I      1   4.12500E+03   8.75000E+02  HDI001pr36c16       
 HD   I      1   4.37500E+03   8.75000E+02  HDI001pr36c17       
 HD   I      1   4.62500E+03   8.75000E+02  HDI001pr36c18       
 HD   I      1   1.37500E+03   6.25000E+02  HDI001pr37c05       
 HD   I      1   1.62500E+03   6.25000E+02  HDI001pr37c06       
 HD   I      1   1.87500E+03   6.25000E+02  HDI001pr37c07       
 HD   I      1   2.12500E+03   6.25000E+02  HDI001pr37c08       
 HD   I      1   2.37500E+03   6.25000E+02  HDI001pr37c09       
 HD   I      1   2.62500E+03   6.25000E+02  HDI001pr37c10       
 HD   I      1   2.87500E+03   6.25000E+02  HDI001pr37c11       
 HD   I      1   3.12500E+03   6.25000E+02  HDI001pr37c12       
 HD   I      1   3.37500E+03   6.25000E+02  HDI001pr37c13       
 HD   I      1   3.62500E+03   6.25000E+02  HDI001pr37c14       
 HD   I      1   3.87500E+03   6.25000E+02  HDI001pr37c15       
 HD   I      1   4.12500E+03   6.25000E+02  HDI001pr37c16       
 HD   I      1   4.37500E+03   6.25000E+02  HDI001pr37c17       
 HD   I      1   1.37500E+03   3.75000E+02  HDI001pr38c05       
 HD   I      1   1.62500E+03   3.75000E+02  HDI001pr38c06       
 HD   I      1   1.87500E+03   3.75000E+02  HDI001pr38c07       
 HD   I      1   2.12500E+03   3.75000E+02  HDI001pr38c08       
 HD   I      1   2.37500E+03   3.75000E+02  HDI001pr38c09       
 HD   I      1   2.62500E+03   3.75000E+02  HDI001pr38c10       
 HD   I      1   2.87500E+03   3.75000E+02  HDI001pr38c11       
 HD   I      1   3.12500E+03   3.75000E+02  HDI001pr38c12       
 HD   I      1   3.37500E+03   3.75000E+02  HDI001pr38c13       
 HD   I      1   3.62500E+03   3.75000E+02  HDI001pr38c14       
 HD   I      1   3.87500E+03   3.75000E+02  HDI001pr38c15       
 HD   I      1   4.12500E+03   3.75000E+02  HDI001pr38c16       

 OBS2BAS7 -- HEAD OBSERVATIONS, VERSION 2.0, 2/28/2006
 INPUT READ FROM UNIT  15
 # NH MOBS MAXM IUHOBSV HOBDRY
 #  OBSNAM LAYER ROW COLUMN IREFSP TOFFSET   ROFF   COFF   HOBS

 NUMBER OF HEADS....................................:   42
   NUMBER OF MULTILAYER HEADS.......................:    0
   MAXIMUM NUMBER OF LAYERS FOR MULTILAYER HEADS....:    0
 HEAD OBSERVATIONS WILL BE SAVED ON UNIT............:   42
 SIMULATED EQUIVALENT HEAD AT DRY CELLS WILL BE:   -999.000    

 OBSERVED HEAD DATA -- TIME OFFSETS ARE MULTIPLIED BY:   1.0000    

                    REFER.
       OBSERVATION  STRESS    TIME
  OBS#    NAME      PERIOD   OFFSET    OBSERVATION
     1 obswel1_1        1    0.000       22.22    
 Observation within a steady-state time step has been moved to the end of the time step.
     2 obswel2_1        1    0.000       19.69    
 Observation within a steady-state time step has been moved to the end of the time step.
     3 obswel3_1        1    0.000       22.71    
 Observation within a steady-state time step has been moved to the end of the time step.
     4 obswel4_1        1    0.000       28.73    
 Observation within a steady-state time step has been moved to the end of the time step.
     5 obswel5_1        1    0.000       18.25    
 Observation within a steady-state time step has been moved to the end of the time step.
     6 obswel6_1        1    0.000       17.26    
 Observation within a steady-state time step has been moved to the end of the time step.
     7 obswel7_1        1    0.000       18.01    
 Observation within a steady-state time step has been moved to the end of the time step.
     8 obswel8_1        1    0.000       15.65    
 Observation within a steady-state time step has been moved to the end of the time step.
     9 obswel9_1        1    0.000       23.32    
 Observation within a steady-state time step has been moved to the end of the time step.
    10 obswel10_1       1    0.000       21.74    
 Observation within a steady-state time step has been moved to the end of the time step.
    11 obswel11_1       1    0.000       14.65    
 Observation within a steady-state time step has been moved to the end of the time step.
    12 obswel12_1       1    0.000       18.92    
 Observation within a steady-state time step has been moved to the end of the time step.
    13 obswel13_1       1    0.000       14.42    
 Observation within a steady-state time step has been moved to the end of the time step.
    14 obswel14_1       1    0.000       14.85    
 Observation within a steady-state time step has been moved to the end of the time step.
    15 obswel1_2        2    1825.       22.01    
    16 obswel2_2        2    1825.       19.55    
    17 obswel3_2        2    1825.       22.46    
    18 obswel4_2        2    1825.       28.43    
    19 obswel5_2        2    1825.       18.03    
    20 obswel6_2        2    1825.       17.08    
    21 obswel7_2        2    1825.       17.78    
    22 obswel8_2        2    1825.       15.50    
    23 obswel9_2        2    1825.       23.01    
    24 obswel10_2       2    1825.       21.45    
    25 obswel11_2       2    1825.       14.45    
    26 obswel12_2       2    1825.       19.02    
    27 obswel13_2       2    1825.       14.93    
    28 obswel14_2       2    1825.       14.65    
    29 obswel1_3        3    1.000       21.15    
    30 obswel2_3        3    1.000       19.43    
    31 obswel3_3        3    1.000       21.43    
    32 obswel4_3        3    1.000       25.97    
    33 obswel5_3        3    1.000       17.55    
    34 obswel6_3        3    1.000       16.86    
    35 obswel7_3        3    1.000       16.90    
    36 obswel8_3        3    1.000       15.29    
    37 obswel9_3        3    1.000       21.06    
    38 obswel10_3       3    1.000       19.79    
    39 obswel11_3       3    1.000       14.11    
    40 obswel12_3       3    1.000       18.45    
    41 obswel13_3       3    1.000       15.13    
    42 obswel14_3       3    1.000       14.04    

                                                     HEAD CHANGE
                                                      REFERENCE
        OBSERVATION                   ROW     COL    OBSERVATION
  OBS#     NAME       LAY  ROW  COL  OFFSET  OFFSET   (IF > 0)
     1  obswel1_1       1    4   11   0.000   0.000        0
     2  obswel2_1       1    4   17   0.000   0.000        0
     3  obswel3_1       1    5   10   0.000   0.000        0
     4  obswel4_1       1   11    3   0.000   0.000        0
     5  obswel5_1       1   15   12   0.000   0.000        0
     6  obswel6_1       1   17   18   0.000   0.000        0
     7  obswel7_1       1   23   12   0.000   0.000        0
     8  obswel8_1       1   24   17   0.000   0.000        0
     9  obswel9_1       1   26    6   0.000   0.000        0
    10  obswel10_1      1   28    8   0.000   0.000        0
    11  obswel11_1      1   31   17   0.000   0.000        0
    12  obswel12_1      1   35    9   0.000   0.000        0
    13  obswel13_1      1   36   12   0.000   0.000        0
    14  obswel14_1      1   20   14   0.000   0.000        0
    15  obswel1_2       1    4   11   0.000   0.000        0
    16  obswel2_2       1    4   17   0.000   0.000        0
    17  obswel3_2       1    5   10   0.000   0.000        0
    18  obswel4_2       1   11    3   0.000   0.000        0
    19  obswel5_2       1   15   12   0.000   0.000        0
    20  obswel6_2       1   17   18   0.000   0.000        0
    21  obswel7_2       1   23   12   0.000   0.000        0
    22  obswel8_2       1   24   17   0.000   0.000        0
    23  obswel9_2       1   26    6   0.000   0.000        0
    24  obswel10_2      1   28    8   0.000   0.000        0
    25  obswel11_2      1   31   17   0.000   0.000        0
    26  obswel12_2      1   35    9   0.000   0.000        0
    27  obswel13_2      1   36   12   0.000   0.000        0
    28  obswel14_2      1   20   14   0.000   0.000        0
    29  obswel1_3       1    4   11   0.000   0.000        0
    30  obswel2_3       1    4   17   0.000   0.000        0
    31  obswel3_3       1    5   10   0.000   0.000        0
    32  obswel4_3       1   11    3   0.000   0.000        0
    33  obswel5_3       1   15   12   0.000   0.000        0
    34  obswel6_3       1   17   18   0.000   0.000        0
    35  obswel7_3       1   23   12   0.000   0.000        0
    36  obswel8_3       1   24   17   0.000   0.000        0
    37  obswel9_3       1   26    6   0.000   0.000        0
    38  obswel10_3      1   28    8   0.000   0.000        0
    39  obswel11_3      1   31   17   0.000   0.000        0
    40  obswel12_3      1   35    9   0.000   0.000        0
    41  obswel13_3      1   36   12   0.000   0.000        0
    42  obswel14_3      1   20   14   0.000   0.000        0
1
                            STRESS PERIOD NO.    1, LENGTH =   1.000000    
                            -----------------------------------------------

                              NUMBER OF TIME STEPS =     1

                               MULTIPLIER FOR DELT =     1.000

                            INITIAL TIME STEP SIZE =   1.000000    

 WELL NO.  LAYER   ROW   COL   STRESS RATE         
 --------------------------------------------------
      1      1      9     16      -628.8    
      2      1     11     13      -330.9    
      3      1     20     14      -339.7    
      4      1     26     10      -66.29    
      5      1     29      6      -64.28    
      6      1     34     12      -444.3    

      6 WELLS

                 RECHARGE =  1.382208E-04



 CLASSIFICATION & COUNT OF STREAM SEGMENTS BASED ON SOURCE OF INFLOW:

                HEADWATER     DIVERSION     RECEIVES TRIBUTARY FLOW
                ---------     ---------     -----------------------
                     1              0               0




 A total of   0 hydrographs have been added for SFR arrays.
 
 SOLVING FOR HEAD 


    40 CALLS TO PCG ROUTINE FOR TIME STEP     1 IN STRESS PERIOD    1
   440 TOTAL ITERATIONS

 MAXIMUM HEAD CHANGE FOR EACH ITERATION (1 INDICATES THE FIRST INNER ITERATION):

    HEAD CHANGE    HEAD CHANGE    HEAD CHANGE    HEAD CHANGE    HEAD CHANGE 
   LAYER,ROW,COL  LAYER,ROW,COL  LAYER,ROW,COL  LAYER,ROW,COL  LAYER,ROW,COL
 ---------------------------------------------------------------------------
  1  -47.56      0  -38.94      0   17.52      0   7.435      0  -3.311    
   (  1, 39, 11)  (  1,  9,  4)  (  1, 32,  1)  (  1, 22,  4)  (  1, 33,  2)
  0  -1.304      0 -0.5383      0 -0.2486      0 -0.1449      0 -0.8287E-01
   (  1, 28,  4)  (  1, 12,  1)  (  1, 25,  2)  (  1, 19,  4)  (  1,  8,  5)
  0 -0.3577E-01  0  0.4074E-01  0 -0.1053E-01  0  0.4596E-02  0  0.1491E-02
   (  1,  9,  4)  (  1,  9,  4)  (  1, 14,  3)  (  1, 13,  3)  (  1, 15, 10)
  0  0.8044E-03  0 -0.3833E-03  0 -0.1200E-03  0  0.1295E-03  0 -0.9554E-04
   (  1,  3,  5)  (  1,  4,  5)  (  1,  5, 11)  (  1,  9,  4)  (  1,  9,  2)
  0 -0.2798E-04  0 -0.8192E-05  1  -13.97      0  -9.015      0   4.181    
   (  1,  8,  4)  (  1, 12, 11)  (  1, 39, 12)  (  1,  9,  4)  (  1, 32,  1)
  0   2.023      0  -1.094      0 -0.4199      0 -0.1706      0 -0.8800E-01
   (  1, 39, 11)  (  1, 33,  2)  (  1, 28,  5)  (  1, 37,  5)  (  1, 37,  5)
  0 -0.3365E-01  0 -0.2333E-01  0 -0.1889E-01  0  0.1037E-01  0  0.2765E-02
   (  1, 20,  4)  (  1,  8,  5)  (  1,  9,  4)  (  1,  9,  1)  (  1,  2,  8)
  0  0.1570E-02  0  0.4774E-03  0  0.3213E-03  0 -0.1270E-03  0 -0.8682E-04
   (  1, 13,  3)  (  1,  1, 11)  (  1,  3,  5)  (  1,  4,  5)  (  1,  9,  1)
  0  0.6445E-04  0 -0.1889E-04  0 -0.8989E-05  1   8.051      0  -6.681    
   (  1,  9,  4)  (  1, 11,  2)  (  1,  8,  4)  (  1,  9,  4)  (  1,  9,  4)
  0  -2.696      0  0.8680      0 -0.2935      0 -0.1556      0 -0.8334E-01
   (  1,  8,  5)  (  1, 39, 12)  (  1, 34,  3)  (  1, 29,  4)  (  1, 23,  5)
  0 -0.3594E-01  0 -0.1108E-01  0 -0.5617E-02  0  0.6925E-02  0 -0.2202E-02
   (  1,  8,  5)  (  1, 38,  6)  (  1, 15,  4)  (  1,  9,  4)  (  1, 35,  7)
  0  0.9945E-03  0  0.5182E-03  0  0.3087E-03  0 -0.9254E-04  0  0.4203E-04
   (  1, 17,  9)  (  1, 24,  3)  (  1, 17,  3)  (  1, 13,  1)  (  1, 22,  8)
  0  0.2793E-04  0  0.1603E-04  0 -0.1119E-04  0  0.2912E-05  1   3.902    
   (  1, 33,  2)  (  1,  9,  4)  (  1, 12,  2)  (  1, 25, 11)  (  1,  9,  4)
  0  -2.766      0  -1.305      0 -0.3919      0 -0.1486      0 -0.7796E-01
   (  1,  9,  4)  (  1,  8,  5)  (  1, 33,  2)  (  1, 37,  5)  (  1, 30,  4)
  0 -0.2639E-01  0 -0.2048E-01  0 -0.9807E-02  0 -0.4760E-02  0 -0.2846E-02
   (  1, 25,  7)  (  1, 28,  6)  (  1, 34,  3)  (  1, 30,  8)  (  1,  9,  4)
  0  0.2313E-02  0  0.6806E-03  0  0.3587E-03  0  0.1609E-03  0  0.4958E-04
   (  1,  9,  3)  (  1, 38,  8)  (  1, 15,  2)  (  1, 33,  2)  (  1, 14,  4)
  0 -0.3181E-04  0 -0.1748E-04  0  0.9381E-05  1  -1.566      0 -0.8869    
   (  1, 15,  2)  (  1,  9,  4)  (  1,  9,  4)  (  1, 39, 15)  (  1,  9,  4)
  0 -0.5480      0 -0.2199      0 -0.1120      0 -0.4849E-01  0 -0.1738E-01
   (  1,  8,  5)  (  1, 26,  4)  (  1, 37,  5)  (  1, 31,  5)  (  1, 28,  9)
  0 -0.9251E-02  0 -0.4939E-02  0 -0.2928E-02  0  0.1387E-02  0  0.7945E-03
   (  1, 29,  6)  (  1, 34,  3)  (  1, 30,  8)  (  1,  4,  5)  (  1,  9,  4)
  0 -0.6993E-03  0  0.2928E-03  0  0.9338E-04  0  0.5357E-04  0 -0.1953E-04
   (  1,  9,  4)  (  1, 15,  2)  (  1, 33,  2)  (  1, 17,  4)  (  1, 16,  2)
  0 -0.6822E-05  1 -0.9864      0 -0.4385      0 -0.2092      0 -0.1467    
   (  1,  8, 11)  (  1, 39, 15)  (  1,  9,  4)  (  1,  8,  5)  (  1, 27,  6)
  0 -0.7315E-01  0 -0.2248E-01  0 -0.1199E-01  0 -0.5900E-02  0 -0.1909E-02
   (  1, 37,  5)  (  1, 32,  5)  (  1,  8,  5)  (  1, 33,  2)  (  1, 35,  4)
  0 -0.1603E-02  0  0.5742E-03  0 -0.5213E-03  0  0.3430E-03  0  0.1574E-03
   (  1, 28,  3)  (  1,  4,  5)  (  1,  9,  4)  (  1,  9,  4)  (  1, 15,  2)
  0  0.5034E-04  0  0.3129E-04  0  0.1152E-04  0  0.3970E-05  1 -0.6436    
   (  1, 33,  2)  (  1, 16,  4)  (  1, 22,  8)  (  1, 18,  4)  (  1, 39, 15)
  0 -0.2604      0 -0.1391      0 -0.9692E-01  0 -0.4683E-01  0 -0.9775E-02
   (  1,  9,  4)  (  1, 35,  8)  (  1, 27,  6)  (  1, 37,  5)  (  1, 33,  5)
  0 -0.7958E-02  0 -0.4088E-02  0  0.2434E-02  0 -0.1175E-02  0  0.6683E-03
   (  1, 28,  5)  (  1, 33,  2)  (  1,  8,  5)  (  1,  9,  4)  (  1,  9,  4)
  0  0.4434E-03  0 -0.1681E-03  0  0.1088E-03  0  0.3448E-04  0  0.2154E-04
   (  1,  6,  5)  (  1,  6,  7)  (  1, 15,  2)  (  1, 33,  2)  (  1, 32,  1)
  0  0.8527E-05  1 -0.4337      0 -0.1747      0 -0.1031      0 -0.6350E-01
   (  1, 22,  8)  (  1, 39, 15)  (  1,  9,  4)  (  1, 35,  8)  (  1, 27,  7)
  0 -0.3038E-01  0 -0.6214E-02  0 -0.5180E-02  0 -0.2749E-02  0  0.1644E-02
   (  1, 37,  5)  (  1, 27,  9)  (  1, 32,  7)  (  1, 33,  2)  (  1,  8,  5)
  0 -0.6699E-03  0  0.4113E-03  0 -0.2139E-03  0 -0.9845E-04  0  0.7178E-04
   (  1,  5,  1)  (  1,  9,  4)  (  1,  9,  4)  (  1, 27, 10)  (  1, 15,  2)
  0  0.2780E-04  0  0.1358E-04  0  0.5633E-05  1 -0.3009      0 -0.1220    
   (  1, 33,  2)  (  1, 32,  1)  (  1, 22,  8)  (  1, 39, 15)  (  1,  9,  4)
  0 -0.7235E-01  0 -0.4244E-01  0 -0.2011E-01  0 -0.3976E-02  0 -0.3604E-02
   (  1, 35,  8)  (  1, 27,  7)  (  1, 37,  5)  (  1, 27,  9)  (  1, 33,  7)
  0 -0.1855E-02  0  0.1084E-02  0 -0.4425E-03  0 -0.1878E-03  0  0.1392E-03
   (  1, 33,  2)  (  1,  8,  5)  (  1,  5,  1)  (  1, 37,  7)  (  1,  9,  4)
  0 -0.8172E-04  0  0.4910E-04  0  0.2260E-04  0  0.8835E-05  1 -0.2143    
   (  1,  9,  4)  (  1, 16,  2)  (  1, 33,  2)  (  1, 16,  4)  (  1, 39, 15)
  0 -0.8492E-01  0 -0.5059E-01  0 -0.2903E-01  0 -0.1359E-01  0 -0.2621E-02
   (  1,  9,  4)  (  1, 35,  8)  (  1, 27,  7)  (  1, 37,  5)  (  1, 27, 10)
  0 -0.2512E-02  0 -0.1268E-02  0  0.7025E-03  0 -0.3352E-03  0  0.2117E-03
   (  1, 33,  7)  (  1, 33,  2)  (  1,  7,  3)  (  1,  6,  1)  (  1,  9,  4)
  0  0.1243E-03  0 -0.5684E-04  0  0.3061E-04  0  0.1786E-04  0  0.6564E-05
   (  1,  8,  5)  (  1, 27, 10)  (  1, 16,  2)  (  1, 33,  2)  (  1, 18,  4)
  1 -0.1561      0 -0.5899E-01  0 -0.3569E-01  0 -0.2033E-01  0 -0.9368E-02
   (  1, 39, 15)  (  1,  9,  4)  (  1, 35,  8)  (  1, 27,  7)  (  1, 37,  5)
  0 -0.2140E-02  0 -0.1745E-02  0 -0.8851E-03  0  0.4027E-03  0 -0.2107E-03
   (  1,  8,  5)  (  1, 33,  7)  (  1, 33,  2)  (  1,  7,  3)  (  1,  6,  1)
  0  0.1630E-03  0  0.7712E-04  0 -0.3855E-04  0 -0.1985E-04  0  0.1237E-04
   (  1,  9,  4)  (  1,  8,  5)  (  1, 27, 10)  (  1, 32,  1)  (  1, 33,  2)
  0  0.3875E-05  1 -0.1160      0 -0.4128E-01  0 -0.2536E-01  0 -0.1450E-01
   (  1, 19,  4)  (  1, 39, 15)  (  1,  9,  4)  (  1, 35,  8)  (  1, 27,  7)
  0 -0.6583E-02  0 -0.1844E-02  0 -0.1218E-02  0 -0.6249E-03  0 -0.2411E-03
   (  1, 37,  5)  (  1,  8,  5)  (  1, 33,  7)  (  1, 33,  2)  (  1, 29,  3)
  0 -0.1086E-03  0  0.8397E-04  0  0.4025E-04  0 -0.3153E-04  0  0.1233E-04
   (  1,  8,  1)  (  1,  9,  4)  (  1,  6,  5)  (  1,  8,  5)  (  1,  8,  5)
  0  0.8022E-05  1 -0.8767E-01  0 -0.2925E-01  0 -0.1804E-01  0 -0.1048E-01
   (  1, 32,  1)  (  1, 39, 15)  (  1,  9,  4)  (  1, 35,  8)  (  1, 27,  7)
  0 -0.4701E-02  0 -0.1498E-02  0 -0.8604E-03  0 -0.4410E-03  0 -0.1810E-03
   (  1, 37,  5)  (  1,  8,  5)  (  1, 33,  7)  (  1, 33,  2)  (  1, 28,  3)
  0  0.1234E-03  0  0.6019E-04  0 -0.7727E-04  0 -0.1850E-04  0 -0.7747E-05
   (  1,  8,  5)  (  1,  9,  4)  (  1,  9,  4)  (  1, 27, 10)  (  1, 35,  8)
  1 -0.6716E-01  0 -0.2103E-01  0 -0.1283E-01  0 -0.7645E-02  0 -0.3392E-02
   (  1, 39, 15)  (  1,  9,  4)  (  1, 31,  1)  (  1, 27,  7)  (  1, 37,  5)
  0 -0.1178E-02  0 -0.6154E-03  0 -0.3088E-03  0 -0.1267E-03  0  0.1107E-03
   (  1,  8,  5)  (  1, 33,  7)  (  1, 33,  2)  (  1, 28,  3)  (  1,  7,  3)
  0 -0.4989E-04  0  0.2369E-04  0 -0.1313E-04  0 -0.5912E-05  1 -0.5200E-01
   (  1, 15,  3)  (  1,  9,  4)  (  1, 27, 10)  (  1,  6,  7)  (  1, 39, 15)
  0 -0.1530E-01  0 -0.8973E-02  0 -0.5606E-02  0 -0.2459E-02  0 -0.9134E-03
   (  1,  9,  4)  (  1, 31,  1)  (  1, 27,  7)  (  1, 37,  5)  (  1,  8,  5)
  0 -0.4440E-03  0 -0.2137E-03  0 -0.8812E-04  0  0.9083E-04  0 -0.4668E-04
   (  1, 33,  7)  (  1, 33,  2)  (  1, 31,  8)  (  1,  7,  3)  (  1,  9,  1)
  0  0.2624E-04  0  0.9876E-05  1 -0.4056E-01  0 -0.1117E-01  0 -0.5987E-02
   (  1,  9,  4)  (  1, 13,  2)  (  1, 39, 15)  (  1,  9,  4)  (  1, 32,  1)
  0 -0.4119E-02  0 -0.1782E-02  0 -0.7049E-03  0 -0.3215E-03  0 -0.1459E-03
   (  1, 27,  7)  (  1, 37,  5)  (  1,  8,  5)  (  1, 33,  7)  (  1, 33,  2)
  0 -0.7214E-04  0  0.6719E-04  0 -0.3483E-04  0  0.1993E-04  0  0.8700E-05
   (  1,  5,  1)  (  1,  7,  3)  (  1, 14,  2)  (  1,  9,  4)  (  1, 14,  2)
  1 -0.3176E-01  0 -0.7969E-02  0  0.4980E-02  0 -0.3022E-02  0 -0.1283E-02
   (  1, 39, 15)  (  1,  9,  4)  (  1,  9,  4)  (  1, 27,  7)  (  1, 37,  5)
  0 -0.5441E-03  0 -0.2339E-03  0  0.1054E-03  0 -0.5883E-04  0  0.5176E-04
   (  1,  8,  5)  (  1, 33,  6)  (  1, 29,  3)  (  1,  5,  1)  (  1,  9,  4)
  0 -0.2225E-04  0 -0.1194E-04  0  0.7962E-05  1 -0.2489E-01  0 -0.5246E-02
   (  1,  9,  1)  (  1,  8,  5)  (  1, 14,  2)  (  1, 39, 15)  (  1,  9,  4)
  0  0.3807E-02  0 -0.2220E-02  0 -0.9136E-03  0 -0.4208E-03  0 -0.1714E-03
   (  1,  9,  4)  (  1, 20,  3)  (  1, 37,  5)  (  1,  8,  5)  (  1, 34,  7)
  0  0.8233E-04  0 -0.4554E-04  0  0.3472E-04  0  0.1398E-04  0 -0.1538E-04
   (  1, 29,  3)  (  1,  5,  1)  (  1,  8,  5)  (  1,  9,  4)  (  1,  9,  1)
  0  0.6664E-05  1 -0.1945E-01  0 -0.3867E-02  0  0.2488E-02  0 -0.1677E-02
   (  1, 14,  2)  (  1, 39, 15)  (  1, 31,  1)  (  1,  9,  4)  (  1, 20,  3)
  0 -0.6614E-03  0 -0.3259E-03  0 -0.1297E-03  0  0.6321E-04  0 -0.3499E-04
   (  1, 30, 20)  (  1,  8,  5)  (  1, 29, 20)  (  1, 29,  3)  (  1,  5,  1)
  0  0.2385E-04  0 -0.1461E-04  0  0.5496E-05  1 -0.1510E-01  0 -0.3188E-02
   (  1, 17,  4)  (  1, 15,  2)  (  1,  9,  4)  (  1, 39, 15)  (  1, 31,  1)
  0  0.1209E-02  0 -0.1325E-02  0 -0.5387E-03  0 -0.2511E-03  0 -0.9963E-04
   (  1,  9,  4)  (  1,  9,  4)  (  1, 35, 20)  (  1,  8,  5)  (  1, 29, 20)
  0  0.4776E-04  0 -0.2625E-04  0  0.1803E-04  0 -0.9165E-05  1 -0.1162E-01
   (  1, 29,  3)  (  1,  5,  1)  (  1, 18,  4)  (  1, 15,  2)  (  1, 39, 15)
  0 -0.2336E-02  0 -0.1356E-02  0  0.7585E-03  0 -0.4359E-03  0 -0.1960E-03
   (  1, 32,  1)  (  1,  9,  4)  (  1,  9,  4)  (  1, 35, 20)  (  1,  8,  5)
  0 -0.7520E-04  0  0.3548E-04  0 -0.1927E-04  0 -0.1428E-04  0 -0.7000E-05
   (  1, 29, 20)  (  1, 29,  3)  (  1,  5,  1)  (  1, 39, 17)  (  1, 15,  2)
  1 -0.8830E-02  0 -0.1631E-02  0 -0.1050E-02  0 -0.5373E-03  0 -0.3465E-03
   (  1, 39, 15)  (  1, 32,  1)  (  1,  9,  4)  (  1, 35, 20)  (  1, 35, 20)
  0 -0.1496E-03  0 -0.5565E-04  0  0.2609E-04  0 -0.1379E-04  0 -0.1107E-04
   (  1,  8,  5)  (  1, 29, 20)  (  1, 28,  3)  (  1,  5,  1)  (  1, 39, 17)
  0 -0.4320E-05  1 -0.6616E-02  0 -0.1074E-02  0 -0.8772E-03  0 -0.4513E-03
   (  1, 16,  2)  (  1, 39, 15)  (  1, 32,  1)  (  1,  9,  4)  (  1, 35, 20)
  0 -0.2689E-03  0 -0.1130E-03  0 -0.4037E-04  0  0.1886E-04  0 -0.9602E-05
   (  1, 35, 20)  (  1,  8,  5)  (  1, 29, 20)  (  1, 28,  3)  (  1,  5,  1)
  1 -0.4879E-02  0 -0.7231E-03  0 -0.6653E-03  0 -0.3496E-03  0 -0.2043E-03
   (  1, 39, 15)  (  1, 32,  1)  (  1,  9,  4)  (  1, 35, 20)  (  1, 35, 20)
  0 -0.8205E-04  0 -0.2874E-04  0  0.1309E-04  0 -0.6856E-05  1 -0.3538E-02
   (  1,  8,  5)  (  1, 30, 20)  (  1, 28,  3)  (  1,  5,  1)  (  1, 39, 15)
  0  0.5650E-03  0 -0.4938E-03  0 -0.2639E-03  0 -0.1514E-03  0 -0.5936E-04
   (  1,  9,  4)  (  1,  9,  4)  (  1, 35, 20)  (  1, 35, 20)  (  1,  8,  5)
  0 -0.2018E-04  0  0.9054E-05  1 -0.2521E-02  0  0.4678E-03  0 -0.3465E-03
   (  1, 30, 20)  (  1, 28,  3)  (  1, 39, 15)  (  1,  9,  4)  (  1,  9,  4)
  0 -0.1939E-03  0 -0.1109E-03  0 -0.4410E-04  0  0.1768E-04  0  0.6259E-05
   (  1, 35, 20)  (  1, 35, 20)  (  1,  8,  5)  (  1,  8,  5)  (  1, 30,  4)
  1 -0.1765E-02  0  0.3290E-03  0 -0.2374E-03  0 -0.1385E-03  0 -0.7879E-04
   (  1, 39, 15)  (  1,  9,  4)  (  1,  9,  4)  (  1, 35, 20)  (  1, 35, 20)
  0 -0.2883E-04  0  0.1311E-04  0 -0.4271E-05  1 -0.1214E-02  0  0.2234E-03
   (  1,  8,  4)  (  1,  8,  5)  (  1, 18,  3)  (  1, 39, 15)  (  1,  9,  4)
  0 -0.1616E-03  0 -0.9690E-04  0 -0.5449E-04  0 -0.1885E-04  0  0.8470E-05
   (  1,  9,  4)  (  1, 35, 20)  (  1, 35, 20)  (  1,  8,  4)  (  1,  8,  5)
  1 -0.8215E-03  0  0.1613E-03  0 -0.1051E-03  0 -0.6641E-04  0 -0.3592E-04
   (  1, 39, 15)  (  1,  9,  4)  (  1,  9,  4)  (  1, 35, 20)  (  1, 35, 20)
  0 -0.1322E-04  0  0.6091E-05  1 -0.5469E-03  0  0.1079E-03  0 -0.6762E-04
   (  1,  8,  5)  (  1,  8,  5)  (  1, 39, 15)  (  1,  9,  4)  (  1,  9,  4)
  0 -0.4460E-04  0 -0.2332E-04  0 -0.8777E-05  1 -0.3585E-03  0  0.4252E-04
   (  1, 35, 20)  (  1, 35, 20)  (  1,  8,  5)  (  1, 39, 15)  (  1, 31, 10)
  0 -0.4871E-04  0 -0.3118E-04  0 -0.1319E-04  0 -0.3585E-05  1 -0.2316E-03
   (  1,  9,  4)  (  1, 35, 20)  (  1, 35, 20)  (  1, 35, 20)  (  1, 39, 15)
  0  0.4042E-04  0 -0.3155E-04  0 -0.2091E-04  0 -0.7532E-05  1 -0.1476E-03
   (  1,  9,  4)  (  1,  9,  4)  (  1, 35, 20)  (  1, 35, 20)  (  1, 39, 15)
  0  0.4404E-04  0  0.1825E-04  0 -0.1212E-04  0 -0.4487E-05  1 -0.9281E-04
   (  1,  9,  4)  (  1,  8,  5)  (  1, 35, 20)  (  1, 35, 20)  (  1, 39, 15)
  0  0.2138E-04  0 -0.1009E-04  0  0.7190E-05  1 -0.5764E-04  0  0.1349E-04
   (  1,  9,  4)  (  1,  9,  4)  (  1, 34, 12)  (  1, 39, 15)  (  1,  9,  4)
  0 -0.8495E-05  1 -0.3533E-04  0 -0.1692E-04  0  0.1427E-04  0 -0.9879E-06
   (  1,  9,  4)  (  1, 39, 15)  (  1,  9,  4)  (  1,  9,  4)  (  1,  9,  4)
  1 -0.2147E-04  0 -0.9900E-05  1  0.8025E-04  0 -0.8185E-04  0 -0.1057E-04
   (  1, 39, 15)  (  1,  9,  4)  (  1,  9,  4)  (  1,  9,  4)  (  1, 28,  7)
  0 -0.6039E-06  1  0.2302E-04  0 -0.2427E-04  0 -0.2578E-05  1  0.7532E-05
   (  1, 24,  8)  (  1,  9,  4)  (  1,  9,  4)  (  1, 28,  7)  (  1,  9,  4)

 MAXIMUM RESIDUAL FOR EACH ITERATION (1 INDICATES THE FIRST INNER ITERATION):

    RESIDUAL       RESIDUAL       RESIDUAL       RESIDUAL       RESIDUAL    
   LAYER,ROW,COL  LAYER,ROW,COL  LAYER,ROW,COL  LAYER,ROW,COL  LAYER,ROW,COL
 ---------------------------------------------------------------------------
  1   4114.      0  -3212.      0  -1404.      0  -605.4      0  -287.8    
   (  1, 22, 15)  (  1, 39, 12)  (  1, 39,  9)  (  1, 39,  7)  (  1, 39, 15)
  0  -220.6      0  -164.0      0  -107.2      0  -65.73      0  -42.88    
   (  1, 39, 15)  (  1, 39, 15)  (  1, 39, 15)  (  1, 39, 15)  (  1, 39, 15)
  0  -33.53      0  -23.85      0  -12.67      0  -6.019      0  -2.794    
   (  1, 39, 15)  (  1, 39, 15)  (  1, 39, 15)  (  1, 39, 15)  (  1, 39, 15)
  0  -1.320      0 -0.5763      0 -0.2368      0 -0.1798      0 -0.8646E-01
   (  1, 39, 15)  (  1, 39, 15)  (  1, 39, 15)  (  1, 39, 15)  (  1, 39, 15)
  0 -0.3404E-01  0 -0.1278E-01  1  -928.3      0  -794.7      0  -365.9    
   (  1, 39, 15)  (  1, 39, 15)  (  1, 39, 13)  (  1, 39, 13)  (  1, 39, 14)
  0  -168.5      0  -134.0      0  -100.3      0  -72.54      0  -46.15    
   (  1, 39, 15)  (  1, 39, 15)  (  1, 39, 15)  (  1, 39, 15)  (  1, 39, 15)
  0  -28.65      0  -19.26      0  -16.41      0  -9.479      0  -4.746    
   (  1, 39, 15)  (  1, 39, 15)  (  1, 39, 15)  (  1, 39, 15)  (  1, 39, 15)
  0  -2.222      0  -1.037      0 -0.4915      0 -0.2034      0 -0.9547E-01
   (  1, 39, 15)  (  1, 39, 15)  (  1, 39, 15)  (  1, 39, 15)  (  1, 39, 15)
  0 -0.7253E-01  0 -0.2945E-01  0 -0.1192E-01  1   317.2      0  -197.5    
   (  1, 39, 15)  (  1, 39, 15)  (  1, 39, 15)  (  1,  9,  4)  (  1, 39, 14)
  0  -139.4      0  -75.09      0  -56.80      0  -42.74      0  -28.42    
   (  1, 39, 14)  (  1, 39, 15)  (  1, 39, 15)  (  1, 39, 15)  (  1, 39, 15)
  0  -16.82      0  -9.369      0  -6.315      0  -4.835      0  -3.104    
   (  1, 39, 15)  (  1, 39, 15)  (  1, 39, 15)  (  1, 39, 15)  (  1, 39, 15)
  0  -1.500      0 -0.7537      0 -0.3586      0 -0.1556      0 -0.6242E-01
   (  1, 39, 15)  (  1, 39, 15)  (  1, 39, 15)  (  1, 39, 15)  (  1, 39, 15)
  0 -0.2769E-01  0 -0.2294E-01  0 -0.1041E-01  0 -0.3978E-02  1   124.1    
   (  1, 39, 15)  (  1, 39, 15)  (  1, 39, 15)  (  1, 39, 15)  (  1,  9,  4)
  0  -59.05      0  -54.83      0  -40.98      0  -27.58      0  -20.70    
   (  1, 39, 14)  (  1, 39, 15)  (  1, 39, 15)  (  1, 39, 15)  (  1, 39, 15)
  0  -13.90      0  -8.662      0  -5.730      0  -3.375      0  -2.903    
   (  1, 39, 15)  (  1, 39, 15)  (  1, 39, 15)  (  1, 39, 15)  (  1, 39, 15)
  0  -1.700      0 -0.8262      0 -0.4043      0 -0.1823      0 -0.8369E-01
   (  1, 39, 15)  (  1, 39, 15)  (  1, 39, 15)  (  1, 39, 15)  (  1, 39, 15)
  0 -0.3256E-01  0 -0.1564E-01  0 -0.1261E-01  1  -41.56      0  -35.95    
   (  1, 39, 15)  (  1, 39, 15)  (  1, 39, 15)  (  1, 34, 12)  (  1, 34, 12)
  0  -28.92      0  -22.76      0  -15.07      0  -10.97      0  -7.158    
   (  1, 39, 15)  (  1, 39, 15)  (  1, 39, 15)  (  1, 39, 15)  (  1, 39, 15)
  0  -4.691      0  -3.228      0  -1.777      0  -1.017      0 -0.7232    
   (  1, 39, 15)  (  1, 39, 15)  (  1, 39, 15)  (  1, 39, 15)  (  1, 39, 15)
  0 -0.4819      0 -0.2483      0 -0.1148      0 -0.5535E-01  0 -0.2178E-01
   (  1, 39, 15)  (  1, 39, 15)  (  1, 39, 15)  (  1, 39, 15)  (  1, 39, 15)
  0 -0.9917E-02  1  -28.03      0  -21.58      0  -16.23      0  -13.04    
   (  1, 39, 15)  (  1, 34, 12)  (  1, 34, 12)  (  1, 39, 15)  (  1, 39, 15)
  0  -8.587      0  -5.881      0  -3.992      0  -2.504      0  -1.491    
   (  1, 39, 15)  (  1, 39, 15)  (  1, 39, 15)  (  1, 39, 15)  (  1, 39, 15)
  0 -0.9775      0 -0.5700      0 -0.4306      0 -0.2874      0 -0.1511    
   (  1, 39, 15)  (  1, 39, 15)  (  1, 39, 15)  (  1, 39, 15)  (  1, 39, 15)
  0 -0.7019E-01  0 -0.3372E-01  0 -0.1351E-01  0 -0.5556E-02  1  -18.49    
   (  1, 39, 15)  (  1, 39, 15)  (  1, 39, 15)  (  1, 39, 15)  (  1, 34, 12)
  0  -14.75      0  -9.802      0  -7.993      0  -5.334      0  -3.632    
   (  1, 34, 12)  (  1, 39, 15)  (  1, 39, 15)  (  1, 39, 15)  (  1, 39, 15)
  0  -2.518      0  -1.581      0 -0.9953      0 -0.6349      0 -0.5564    
   (  1, 39, 15)  (  1, 39, 15)  (  1, 39, 15)  (  1, 39, 15)  (  1, 39, 15)
  0 -0.3131      0 -0.1769      0 -0.9351E-01  0 -0.4396E-01  0 -0.2136E-01
   (  1, 39, 15)  (  1, 39, 15)  (  1, 39, 15)  (  1, 39, 15)  (  1, 39, 15)
  0 -0.8944E-02  1  -12.20      0  -10.26      0  -6.264      0  -5.159    
   (  1, 39, 15)  (  1, 34, 12)  (  1, 34, 12)  (  1, 39, 15)  (  1, 39, 15)
  0  -3.480      0  -2.450      0  -1.669      0  -1.035      0 -0.6382    
   (  1, 39, 15)  (  1, 39, 15)  (  1, 39, 15)  (  1, 39, 15)  (  1, 39, 15)
  0 -0.4045      0 -0.2302      0 -0.1988      0 -0.1145      0 -0.5986E-01
   (  1, 39, 15)  (  1, 39, 15)  (  1, 39, 15)  (  1, 39, 15)  (  1, 39, 15)
  0 -0.2821E-01  0 -0.1387E-01  0 -0.6032E-02  1  -8.162      0  -6.998    
   (  1, 39, 15)  (  1, 39, 15)  (  1, 39, 15)  (  1, 34, 12)  (  1, 34, 12)
  0  -4.185      0  -3.467      0  -2.353      0  -1.696      0  -1.137    
   (  1, 39, 15)  (  1, 39, 15)  (  1, 39, 15)  (  1, 39, 15)  (  1, 39, 15)
  0 -0.7002      0 -0.4249      0 -0.2720      0 -0.1511      0 -0.1319    
   (  1, 39, 15)  (  1, 39, 15)  (  1, 39, 15)  (  1, 39, 15)  (  1, 39, 15)
  0 -0.7681E-01  0 -0.3959E-01  0 -0.1844E-01  0 -0.9075E-02  1  -5.578    
   (  1, 39, 15)  (  1, 39, 15)  (  1, 39, 15)  (  1, 39, 15)  (  1, 34, 12)
  0  -4.803      0  -2.895      0  -2.408      0  -1.642      0  -1.206    
   (  1, 34, 12)  (  1, 39, 15)  (  1, 39, 15)  (  1, 39, 15)  (  1, 39, 15)
  0 -0.7969      0 -0.4870      0 -0.2838      0 -0.1881      0 -0.1538    
   (  1, 39, 15)  (  1, 39, 15)  (  1, 39, 15)  (  1, 39, 15)  (  1, 39, 15)
  0 -0.9423E-01  0 -0.5289E-01  0 -0.2692E-01  0 -0.1226E-01  0 -0.5958E-02
   (  1, 39, 15)  (  1, 39, 15)  (  1, 39, 15)  (  1, 39, 15)  (  1, 39, 15)
  1  -3.902      0  -3.350      0  -2.058      0  -1.718      0  -1.177    
   (  1, 34, 12)  (  1, 34, 12)  (  1, 39, 15)  (  1, 39, 15)  (  1, 39, 15)
  0 -0.8759      0 -0.5720      0 -0.3471      0 -0.1877      0 -0.1274    
   (  1, 39, 15)  (  1, 39, 15)  (  1, 39, 15)  (  1, 39, 15)  (  1, 39, 15)
  0 -0.9137E-01  0 -0.6633E-01  0 -0.3738E-01  0 -0.1890E-01  0 -0.8491E-02
   (  1, 39, 15)  (  1, 39, 15)  (  1, 39, 15)  (  1, 39, 15)  (  1, 39, 15)
  0 -0.4108E-02  1  -2.793      0  -2.378      0  -1.494      0  -1.252    
   (  1, 39, 15)  (  1, 34, 12)  (  1, 34, 12)  (  1, 39, 15)  (  1, 39, 15)
  0 -0.8624      0 -0.6455      0 -0.4189      0 -0.2534      0 -0.1289    
   (  1, 39, 15)  (  1, 39, 15)  (  1, 39, 15)  (  1, 39, 15)  (  1, 39, 15)
  0 -0.7595E-01  0 -0.6555E-01  0 -0.3950E-01  0 -0.2552E-01  0 -0.1358E-01
   (  1, 39, 15)  (  1, 39, 15)  (  1, 39, 15)  (  1, 39, 15)  (  1, 39, 15)
  0 -0.6137E-02  1  -2.040      0  -1.713      0  -1.103      0 -0.9282    
   (  1, 39, 15)  (  1, 34, 12)  (  1, 34, 12)  (  1, 39, 15)  (  1, 39, 15)
  0 -0.6418      0 -0.4813      0 -0.3120      0 -0.1890      0 -0.9957E-01
   (  1, 39, 15)  (  1, 39, 15)  (  1, 39, 15)  (  1, 39, 15)  (  1, 39, 15)
  0 -0.6714E-01  0 -0.5488E-01  0 -0.3520E-01  0 -0.1980E-01  0 -0.9980E-02
   (  1, 39, 15)  (  1, 39, 15)  (  1, 39, 15)  (  1, 39, 15)  (  1, 39, 15)
  1  -1.517      0  -1.246      0 -0.8226      0 -0.6962      0 -0.4828    
   (  1, 34, 12)  (  1, 34, 12)  (  1, 39, 15)  (  1, 39, 15)  (  1, 39, 15)
  0 -0.3623      0 -0.2353      0 -0.1433      0 -0.8276E-01  0 -0.5347E-01
   (  1, 39, 15)  (  1, 39, 15)  (  1, 39, 15)  (  1, 39, 15)  (  1, 39, 15)
  0 -0.2922E-01  0 -0.2558E-01  0 -0.1453E-01  0 -0.7303E-02  1  -1.143    
   (  1, 39, 15)  (  1, 39, 15)  (  1, 39, 15)  (  1, 39, 15)  (  1, 34, 12)
  0 -0.9080      0 -0.6179      0 -0.5260      0 -0.3656      0 -0.2744    
   (  1, 34, 12)  (  1, 39, 15)  (  1, 39, 15)  (  1, 39, 15)  (  1, 39, 15)
  0 -0.1788      0 -0.1100      0 -0.6871E-01  0 -0.4114E-01  0 -0.2768E-01
   (  1, 39, 15)  (  1, 39, 15)  (  1, 39, 15)  (  1, 39, 15)  (  1, 39, 15)
  0 -0.1973E-01  0 -0.1068E-01  1 -0.8703      0 -0.6561      0 -0.4654    
   (  1, 39, 15)  (  1, 39, 15)  (  1, 34, 12)  (  1, 34, 12)  (  1, 39, 15)
  0 -0.3987      0 -0.2777      0 -0.2085      0 -0.1365      0 -0.8502E-01
   (  1, 39, 15)  (  1, 39, 15)  (  1, 39, 15)  (  1, 39, 15)  (  1, 39, 15)
  0 -0.5592E-01  0 -0.3146E-01  0 -0.1949E-01  0 -0.1489E-01  0 -0.7992E-02
   (  1, 39, 15)  (  1, 39, 15)  (  1, 39, 15)  (  1, 39, 15)  (  1, 39, 15)
  1 -0.6665      0 -0.4644      0 -0.3498      0 -0.3019      0 -0.2106    
   (  1, 34, 12)  (  1, 34, 12)  (  1, 39, 15)  (  1, 39, 15)  (  1, 39, 15)
  0 -0.1582      0 -0.1042      0 -0.6584E-01  0 -0.4468E-01  0 -0.2422E-01
   (  1, 39, 15)  (  1, 39, 15)  (  1, 39, 15)  (  1, 39, 15)  (  1, 39, 15)
  0 -0.2020E-01  0 -0.1142E-01  0 -0.6110E-02  1 -0.5114      0 -0.3197    
   (  1, 39, 15)  (  1, 39, 15)  (  1, 39, 15)  (  1, 34, 12)  (  1, 34, 12)
  0 -0.2612      0 -0.2275      0 -0.1589      0 -0.1196      0 -0.7917E-01
   (  1, 39, 15)  (  1, 39, 15)  (  1, 39, 15)  (  1, 39, 15)  (  1, 39, 15)
  0 -0.5088E-01  0 -0.3518E-01  0 -0.1844E-01  0 -0.1252E-01  0 -0.8829E-02
   (  1, 39, 15)  (  1, 39, 15)  (  1, 39, 15)  (  1, 39, 15)  (  1, 39, 15)
  0 -0.4769E-02  1 -0.3917      0 -0.2177      0 -0.1927      0 -0.1699    
   (  1, 39, 15)  (  1, 34, 12)  (  1, 34, 12)  (  1, 39, 15)  (  1, 39, 15)
  0 -0.1188      0 -0.8968E-01  0 -0.5974E-01  0 -0.3907E-01  0 -0.2731E-01
   (  1, 39, 15)  (  1, 39, 15)  (  1, 39, 15)  (  1, 39, 15)  (  1, 39, 15)
  0 -0.1405E-01  0 -0.7570E-02  0 -0.6504E-02  1 -0.2983      0 -0.1518    
   (  1, 39, 15)  (  1, 39, 15)  (  1, 39, 15)  (  1, 34, 12)  (  1, 34, 12)
  0 -0.1351      0 -0.1251      0 -0.8784E-01  0 -0.6650E-01  0 -0.4457E-01
   (  1, 39, 15)  (  1, 39, 15)  (  1, 39, 15)  (  1, 39, 15)  (  1, 39, 15)
  0 -0.2965E-01  0 -0.2086E-01  0 -0.1062E-01  0 -0.5772E-02  1 -0.2251    
   (  1, 39, 15)  (  1, 39, 15)  (  1, 39, 15)  (  1, 39, 15)  (  1, 34, 12)
  0 -0.1154      0 -0.9824E-01  0 -0.9097E-01  0 -0.6402E-01  0 -0.4864E-01
   (  1, 34, 12)  (  1, 39, 15)  (  1, 39, 15)  (  1, 39, 15)  (  1, 39, 15)
  0 -0.3282E-01  0 -0.2218E-01  0 -0.1565E-01  0 -0.7938E-02  0 -0.4415E-02
   (  1, 39, 15)  (  1, 39, 15)  (  1, 39, 15)  (  1, 39, 15)  (  1, 39, 15)
  1 -0.1679      0 -0.8963E-01  0 -0.7053E-01  0 -0.6501E-01  0 -0.4592E-01
   (  1, 34, 12)  (  1, 34, 12)  (  1, 39, 15)  (  1, 39, 15)  (  1, 39, 15)
  0 -0.3502E-01  0 -0.2380E-01  0 -0.1630E-01  0 -0.1152E-01  0 -0.5850E-02
   (  1, 39, 15)  (  1, 39, 15)  (  1, 39, 15)  (  1, 39, 15)  (  1, 39, 15)
  0 -0.3358E-02  1 -0.1234      0 -0.7065E-01  0 -0.5371E-01  0 -0.4557E-01
   (  1, 39, 15)  (  1, 34, 12)  (  1, 34, 12)  (  1, 34, 12)  (  1, 39, 15)
  0 -0.3238E-01  0 -0.2479E-01  0 -0.1696E-01  0 -0.1174E-01  0 -0.8300E-02
   (  1, 39, 15)  (  1, 39, 15)  (  1, 39, 15)  (  1, 39, 15)  (  1, 39, 15)
  1 -0.8939E-01  0 -0.5293E-01  0 -0.3938E-01  0 -0.3133E-01  0 -0.2242E-01
   (  1, 34, 12)  (  1, 34, 12)  (  1, 34, 12)  (  1, 39, 15)  (  1, 39, 15)
  0 -0.1729E-01  0 -0.1189E-01  0 -0.8275E-02  0 -0.5837E-02  1 -0.6359E-01
   (  1, 39, 15)  (  1, 39, 15)  (  1, 39, 15)  (  1, 39, 15)  (  1, 34, 12)
  0 -0.3917E-01  0 -0.2824E-01  0 -0.2112E-01  0 -0.1525E-01  0 -0.1183E-01
   (  1, 34, 12)  (  1, 34, 12)  (  1, 39, 15)  (  1, 39, 15)  (  1, 39, 15)
  0 -0.8177E-02  0 -0.5720E-02  1 -0.4457E-01  0 -0.2868E-01  0 -0.1988E-01
   (  1, 39, 15)  (  1, 39, 15)  (  1, 34, 12)  (  1, 34, 12)  (  1, 34, 12)
  0 -0.1397E-01  0 -0.1018E-01  0 -0.7874E-02  0 -0.5495E-02  0 -0.3832E-02
   (  1, 39, 15)  (  1, 39, 15)  (  1, 39, 15)  (  1, 39, 15)  (  1, 39, 15)
  1 -0.3067E-01  0 -0.1992E-01  0 -0.1369E-01  0 -0.9072E-02  0 -0.6699E-02
   (  1, 34, 12)  (  1, 34, 12)  (  1, 34, 12)  (  1, 39, 15)  (  1, 39, 15)
  0 -0.5175E-02  0 -0.3615E-02  0 -0.2432E-02  1 -0.2072E-01  0 -0.1362E-01
   (  1, 39, 15)  (  1, 39, 15)  (  1, 39, 15)  (  1, 34, 12)  (  1, 34, 12)
  0 -0.9255E-02  0 -0.5786E-02  0 -0.4336E-02  0 -0.3370E-02  0 -0.2353E-02
   (  1, 34, 12)  (  1, 39, 15)  (  1, 39, 15)  (  1, 39, 15)  (  1, 39, 15)
  1 -0.1373E-01  0 -0.9327E-02  0 -0.6199E-02  0 -0.3632E-02  0 -0.2820E-02
   (  1, 34, 12)  (  1, 34, 12)  (  1, 34, 12)  (  1, 39, 15)  (  1, 39, 15)
  0 -0.2189E-02  0 -0.1549E-02  1 -0.8930E-02  0 -0.6127E-02  0 -0.4059E-02
   (  1, 39, 15)  (  1, 39, 15)  (  1, 34, 12)  (  1, 34, 12)  (  1, 34, 12)
  0 -0.2243E-02  0 -0.1793E-02  0 -0.1400E-02  1  0.6065E-02  0 -0.3706E-02
   (  1, 39, 15)  (  1, 39, 15)  (  1, 39, 15)  (  1, 36, 15)  (  1, 34, 12)
  0  0.2746E-02  0 -0.1400E-02  0 -0.1118E-02  0 -0.8834E-03  1  0.3940E-02
   (  1, 36, 15)  (  1, 39, 15)  (  1, 39, 15)  (  1, 39, 15)  (  1, 36, 15)
  0 -0.2645E-02  0  0.1835E-02  0 -0.8544E-03  0 -0.6942E-03  1  0.2786E-02
   (  1, 34, 12)  (  1, 36, 15)  (  1, 39, 15)  (  1, 39, 15)  (  1, 36, 15)
  0  0.1825E-02  0  0.1256E-02  0  0.5605E-03  0 -0.4664E-03  1  0.1608E-02
   (  1, 36, 15)  (  1, 36, 15)  (  1, 36, 15)  (  1, 39, 15)  (  1, 36, 15)
  0  0.1002E-02  0  0.7691E-03  0  0.3780E-03  1  0.1114E-02  0  0.6169E-03
   (  1, 36, 15)  (  1, 36, 15)  (  1, 36, 15)  (  1, 36, 15)  (  1, 36, 15)
  0  0.3862E-03  1  0.3495E-02  0  0.8196E-03  0  0.1849E-03  0 -0.1600E-03
   (  1, 36, 15)  (  1, 39, 15)  (  1, 39, 15)  (  1, 36, 15)  (  1, 39, 15)
  1  0.9236E-03  0  0.3259E-03  1  0.7333E-01  0  0.4844E-02  0  0.7151E-04
   (  1, 39, 15)  (  1, 36, 15)  (  1, 39, 15)  (  1, 39, 15)  (  1, 36, 15)
  0 -0.5775E-04  1  0.1039E-01  0  0.5880E-03  0  0.4924E-04  1  0.1702E-02
   (  1, 39, 15)  (  1, 39, 15)  (  1, 39, 15)  (  1, 36, 15)  (  1, 39, 15)



 OUTPUT CONTROL FOR STRESS PERIOD    1   TIME STEP    1
    SAVE HEAD FOR ALL LAYERS
    SAVE BUDGET
 UBDSV2 SAVING "   CONSTANT HEAD" ON UNIT  53 AT TIME STEP  1, STRESS PERIOD   1
 UBDSV1 SAVING "FLOW RIGHT FACE " ON UNIT  53 AT TIME STEP  1, STRESS PERIOD   1
 UBDSV1 SAVING "FLOW FRONT FACE " ON UNIT  53 AT TIME STEP  1, STRESS PERIOD   1

 HEAD WILL BE SAVED ON UNIT   51 AT END OF TIME STEP    1, STRESS PERIOD    1
1
  VOLUMETRIC BUDGET FOR ENTIRE MODEL AT END OF TIME STEP    1, STRESS PERIOD   1
  ------------------------------------------------------------------------------

     CUMULATIVE VOLUMES      L**3       RATES FOR THIS TIME STEP      L**3/T
     ------------------                 ------------------------

           IN:                                      IN:
           ---                                      ---
             STORAGE =           0.0000               STORAGE =           0.0000
       CONSTANT HEAD =          36.5489         CONSTANT HEAD =          36.5489
               WELLS =           0.0000                 WELLS =           0.0000
            RECHARGE =        6003.9658              RECHARGE =        6003.9658
      STREAM LEAKAGE =         113.0204        STREAM LEAKAGE =         113.0204

            TOTAL IN =        6153.5352              TOTAL IN =        6153.5352

          OUT:                                     OUT:
          ----                                     ----
             STORAGE =           0.0000               STORAGE =           0.0000
       CONSTANT HEAD =         229.0990         CONSTANT HEAD =         229.0990
               WELLS =        1874.3583                 WELLS =        1874.3583
            RECHARGE =           0.0000              RECHARGE =           0.0000
      STREAM LEAKAGE =        4050.4573        STREAM LEAKAGE =        4050.4573

           TOTAL OUT =        6153.9146             TOTAL OUT =        6153.9146

            IN - OUT =          -0.3794              IN - OUT =          -0.3794

 PERCENT DISCREPANCY =          -0.01     PERCENT DISCREPANCY =          -0.01






         TIME SUMMARY AT END OF TIME STEP    1 IN STRESS PERIOD    1
                    SECONDS     MINUTES      HOURS       DAYS        YEARS
                    -----------------------------------------------------------
   TIME STEP LENGTH  86400.      1440.0      24.000      1.0000     2.73785E-03
 STRESS PERIOD TIME  86400.      1440.0      24.000      1.0000     2.73785E-03
         TOTAL TIME  86400.      1440.0      24.000      1.0000     2.73785E-03
1
 A TOTAL OF 640 HYDROGRAPH POINTS HAVE BEEN PREPARED.
1
                            STRESS PERIOD NO.    2, LENGTH =   1825.000    
                            -----------------------------------------------

                              NUMBER OF TIME STEPS =     1

                               MULTIPLIER FOR DELT =     1.000

                            INITIAL TIME STEP SIZE =   1825.000    

 WELL NO.  LAYER   ROW   COL   STRESS RATE         
 --------------------------------------------------
      1      1      9     16      -841.8    
      2      1     11     13      -456.2    
      3      1     20     14      -363.5    
      4      1     26     10      -96.74    
      5      1     29      6      -66.48    
      6      1     34     12      -493.4    

      6 WELLS

                 RECHARGE =  9.358508E-05

 REUSING STREAM SEGMENT DATA FROM LAST STRESS PERIOD
 
 SOLVING FOR HEAD 


    22 CALLS TO PCG ROUTINE FOR TIME STEP     1 IN STRESS PERIOD    2
    87 TOTAL ITERATIONS

 MAXIMUM HEAD CHANGE FOR EACH ITERATION (1 INDICATES THE FIRST INNER ITERATION):

    HEAD CHANGE    HEAD CHANGE    HEAD CHANGE    HEAD CHANGE    HEAD CHANGE 
   LAYER,ROW,COL  LAYER,ROW,COL  LAYER,ROW,COL  LAYER,ROW,COL  LAYER,ROW,COL
 ---------------------------------------------------------------------------
  1 -0.7344      0  0.1097      0  0.1813E-01  0  0.4640E-02  0  0.8421E-03
   (  1,  9, 16)  (  1, 11, 13)  (  1, 12, 10)  (  1, 16, 10)  (  1, 13,  9)
  0 -0.2202E-03  0 -0.8186E-04  0 -0.2100E-04  0 -0.3837E-05  1 -0.3122    
   (  1,  8,  5)  (  1,  9,  4)  (  1,  8,  5)  (  1,  9,  4)  (  1,  9, 16)
  0  0.3627E-01  0 -0.7291E-02  0 -0.1644E-02  0 -0.3715E-03  0 -0.1359E-03
   (  1, 11, 13)  (  1,  8, 17)  (  1,  8, 17)  (  1,  9,  4)  (  1,  8,  5)
  0 -0.3189E-04  0  0.5640E-05  1 -0.1363      0  0.1331E-01  0 -0.3225E-02
   (  1,  9,  4)  (  1, 35,  6)  (  1,  9, 16)  (  1, 11, 13)  (  1,  8, 17)
  0 -0.7222E-03  0 -0.1699E-03  0 -0.5179E-04  0 -0.1070E-04  0 -0.2109E-05
   (  1,  8, 17)  (  1,  9,  4)  (  1,  8,  5)  (  1,  9,  4)  (  1,  6, 19)
  1 -0.6085E-01  0  0.5578E-02  0 -0.1380E-02  0 -0.2875E-03  0 -0.6750E-04
   (  1,  9, 16)  (  1, 11, 13)  (  1,  8, 17)  (  1,  8, 17)  (  1,  9,  4)
  0  0.2052E-04  0 -0.4012E-05  1 -0.2790E-01  0  0.2658E-02  0 -0.5667E-03
   (  1,  9,  4)  (  1,  9,  4)  (  1,  9, 16)  (  1, 11, 13)  (  1,  8, 17)
  0 -0.9576E-04  0  0.2664E-04  0  0.8620E-05  1 -0.1289E-01  0  0.1260E-02
   (  1,  8, 17)  (  1,  8,  5)  (  1,  9,  4)  (  1,  9, 16)  (  1, 11, 13)
  0 -0.2261E-03  0  0.4833E-04  0  0.1033E-04  0  0.3489E-05  1 -0.5764E-02
   (  1,  8, 17)  (  1,  9, 16)  (  1,  8,  5)  (  1,  9,  4)  (  1,  9, 16)
  0  0.5353E-03  0  0.9768E-04  0  0.2217E-04  0  0.3767E-05  1 -0.2514E-02
   (  1, 34, 12)  (  1,  9, 16)  (  1,  9, 16)  (  1,  9, 16)  (  1,  9, 16)
  0  0.2088E-03  0  0.4296E-04  0  0.8906E-05  1 -0.1088E-02  0 -0.8706E-04
   (  1, 34, 12)  (  1,  9, 16)  (  1,  9, 16)  (  1,  9, 16)  (  1,  8, 17)
  0  0.1734E-04  0  0.3463E-05  1 -0.4695E-03  0 -0.3992E-04  0 -0.7882E-05
   (  1,  9, 16)  (  1,  9, 16)  (  1,  9, 16)  (  1,  8, 17)  (  1, 33, 11)
  1 -0.2281E-03  0  0.2109E-04  0 -0.4709E-05  1 -0.1931E-03  0  0.1849E-04
   (  1, 39, 15)  (  1, 39, 17)  (  1, 34, 12)  (  1, 39, 15)  (  1, 39, 17)
  0 -0.3143E-05  1 -0.1584E-03  0  0.1537E-04  0 -0.2149E-05  1 -0.1262E-03
   (  1, 34, 12)  (  1, 39, 15)  (  1, 39, 17)  (  1, 34, 12)  (  1, 39, 15)
  0  0.1229E-04  0  0.1642E-05  1 -0.9789E-04  0  0.9557E-05  1 -0.7403E-04
   (  1, 39, 17)  (  1, 38, 18)  (  1, 39, 15)  (  1, 39, 17)  (  1, 39, 15)
  0  0.7510E-05  1 -0.5469E-04  0  0.5460E-05  1 -0.3955E-04  0 -0.3873E-05
   (  1, 39, 17)  (  1, 39, 15)  (  1, 39, 17)  (  1, 39, 15)  (  1, 38, 18)
  1 -0.2803E-04  0 -0.3080E-05  1 -0.1950E-04  0 -0.2275E-05  1 -0.1333E-04
   (  1, 39, 15)  (  1, 38, 18)  (  1, 39, 15)  (  1, 38, 18)  (  1, 39, 15)
  0 -0.1608E-05  1 -0.8956E-05
   (  1, 38, 18)  (  1, 39, 15)

 MAXIMUM RESIDUAL FOR EACH ITERATION (1 INDICATES THE FIRST INNER ITERATION):

    RESIDUAL       RESIDUAL       RESIDUAL       RESIDUAL       RESIDUAL    
   LAYER,ROW,COL  LAYER,ROW,COL  LAYER,ROW,COL  LAYER,ROW,COL  LAYER,ROW,COL
 ---------------------------------------------------------------------------
  1  -16.58      0   3.793      0  0.8787      0  0.1941      0  0.4758E-01
   (  1, 11, 13)  (  1,  8, 17)  (  1,  8, 17)  (  1,  9, 15)  (  1,  7, 18)
  0  0.1016E-01  0  0.2862E-02  0  0.9337E-03  0  0.1845E-03  1   6.350    
   (  1,  9, 15)  (  1,  9, 15)  (  1,  6, 19)  (  1, 19, 15)  (  1,  9, 16)
  0   1.806      0  0.4306      0  0.9013E-01  0  0.2622E-01  0  0.6472E-02
   (  1,  8, 17)  (  1,  8, 17)  (  1,  9, 15)  (  1,  7, 18)  (  1,  7, 18)
  0  0.1556E-02  0  0.4356E-03  1   4.705      0   1.140      0  0.2655    
   (  1,  9, 15)  (  1,  6, 19)  (  1, 22, 15)  (  1, 22, 15)  (  1, 22, 15)
  0  0.5996E-01  0  0.1624E-01  0  0.4105E-02  0  0.1062E-02  0  0.2358E-03
   (  1, 22, 15)  (  1, 22, 15)  (  1, 22, 15)  (  1, 22, 15)  (  1, 22, 15)
  1   4.298      0  0.9842      0  0.2240      0  0.5012E-01  0  0.1331E-01
   (  1, 22, 15)  (  1, 22, 15)  (  1, 22, 15)  (  1, 22, 15)  (  1, 22, 15)
  0  0.3261E-02  0  0.8014E-03  1   2.756      0  0.5658      0  0.1175    
   (  1, 22, 15)  (  1, 22, 15)  (  1, 22, 15)  (  1, 22, 15)  (  1, 22, 15)
  0  0.2387E-01  0  0.5965E-02  0  0.1442E-02  1   1.011      0  0.1817    
   (  1, 22, 15)  (  1, 22, 15)  (  1, 22, 15)  (  1, 22, 15)  (  1, 22, 15)
  0  0.3377E-01  0  0.6246E-02  0  0.1494E-02  0  0.3661E-03  1  0.2285    
   (  1, 22, 15)  (  1, 22, 15)  (  1, 22, 15)  (  1, 22, 15)  (  1, 22, 15)
  0  0.3916E-01  0  0.6815E-02  0  0.1277E-02  0  0.3398E-03  1  0.4980E-01
   (  1, 31, 15)  (  1, 22, 15)  (  1,  7, 18)  (  1,  7, 18)  (  1, 31, 15)
  0 -0.1263E-01  0 -0.2531E-02  0  0.5286E-03  1  0.2174E-01  0 -0.5098E-02
   (  1,  9, 16)  (  1,  9, 16)  (  1,  7, 18)  (  1,  8, 17)  (  1,  9, 16)
  0 -0.9939E-03  0  0.2272E-03  1  0.9500E-02  0 -0.1929E-02  0 -0.3915E-03
   (  1,  9, 16)  (  1,  7, 18)  (  1,  8, 17)  (  1,  9, 16)  (  1,  9, 16)
  1  0.4136E-02  0 -0.6974E-03  0 -0.3048E-03  1  0.1797E-02  0 -0.5834E-03
   (  1,  8, 17)  (  1, 39, 15)  (  1, 39, 15)  (  1,  8, 17)  (  1, 39, 15)
  0 -0.2490E-03  1  0.1041E-02  0 -0.4591E-03  0 -0.1966E-03  1  0.8138E-03
   (  1, 39, 15)  (  1, 39, 14)  (  1, 39, 15)  (  1, 39, 15)  (  1, 39, 14)
  0 -0.3510E-03  0 -0.1515E-03  1  0.6184E-03  0 -0.2607E-03  1  0.4641E-03
   (  1, 39, 15)  (  1, 39, 15)  (  1, 39, 14)  (  1, 39, 15)  (  1, 39, 14)
  0 -0.2052E-03  1 -0.3757E-03  0 -0.1559E-03  1 -0.2890E-03  0 -0.1141E-03
   (  1, 39, 15)  (  1, 39, 17)  (  1, 39, 15)  (  1, 39, 17)  (  1, 39, 15)
  1 -0.2096E-03  0 -0.8076E-04  1  0.1613E-03  0 -0.5563E-04  1  0.1168E-03
   (  1, 39, 17)  (  1, 39, 15)  (  1, 38, 18)  (  1, 39, 15)  (  1, 38, 18)
  0 -0.3727E-04  1  0.8027E-04
   (  1, 39, 15)  (  1, 38, 18)



 OUTPUT CONTROL FOR STRESS PERIOD    2   TIME STEP    1
    SAVE HEAD FOR ALL LAYERS
    SAVE BUDGET
 UBDSV1 SAVING "         STORAGE" ON UNIT  53 AT TIME STEP  1, STRESS PERIOD   2
 UBDSV2 SAVING "   CONSTANT HEAD" ON UNIT  53 AT TIME STEP  1, STRESS PERIOD   2
 UBDSV1 SAVING "FLOW RIGHT FACE " ON UNIT  53 AT TIME STEP  1, STRESS PERIOD   2
 UBDSV1 SAVING "FLOW FRONT FACE " ON UNIT  53 AT TIME STEP  1, STRESS PERIOD   2

 HEAD WILL BE SAVED ON UNIT   51 AT END OF TIME STEP    1, STRESS PERIOD    2
1
  VOLUMETRIC BUDGET FOR ENTIRE MODEL AT END OF TIME STEP    1, STRESS PERIOD   2
  ------------------------------------------------------------------------------

     CUMULATIVE VOLUMES      L**3       RATES FOR THIS TIME STEP      L**3/T
     ------------------                 ------------------------

           IN:                                      IN:
           ---                                      ---
             STORAGE =     2631373.7500               STORAGE =        1441.8486
       CONSTANT HEAD =       72125.9922         CONSTANT HEAD =          39.5011
               WELLS =           0.0000                 WELLS =           0.0000
            RECHARGE =     7424815.0000              RECHARGE =        4065.1018
      STREAM LEAKAGE =      533757.5000        STREAM LEAKAGE =         292.4080

            TOTAL IN =    10662072.0000              TOTAL IN =        5838.8594

          OUT:                                     OUT:
          ----                                     ----
             STORAGE =           0.0000               STORAGE =           0.0000
       CONSTANT HEAD =      325120.9688         CONSTANT HEAD =         178.0229
               WELLS =     4232474.5000                 WELLS =        2318.1370
            RECHARGE =           0.0000              RECHARGE =           0.0000
      STREAM LEAKAGE =     6106376.0000        STREAM LEAKAGE =        3343.7400

           TOTAL OUT =    10663972.0000             TOTAL OUT =        5839.8999

            IN - OUT =       -1900.0000              IN - OUT =          -1.0405

 PERCENT DISCREPANCY =          -0.02     PERCENT DISCREPANCY =          -0.02






         TIME SUMMARY AT END OF TIME STEP    1 IN STRESS PERIOD    2
                    SECONDS     MINUTES      HOURS       DAYS        YEARS
                    -----------------------------------------------------------
   TIME STEP LENGTH 1.57680E+08 2.62800E+06  43800.      1825.0      4.9966    
 STRESS PERIOD TIME 1.57680E+08 2.62800E+06  43800.      1825.0      4.9966    
         TOTAL TIME 1.57766E+08 2.62944E+06  43824.      1826.0      4.9993    
1
1
                            STRESS PERIOD NO.    3, LENGTH =   1.000000    
                            -----------------------------------------------

                              NUMBER OF TIME STEPS =     1

                               MULTIPLIER FOR DELT =     1.000

                            INITIAL TIME STEP SIZE =   1.000000    

 WELL NO.  LAYER   ROW   COL   STRESS RATE         
 --------------------------------------------------
      1      1      9     16      -866.8    
      2      1     11     13      -425.7    
      3      1     20     14      -437.3    
      4      1     26     10      -83.07    
      5      1     29      6      -72.97    
      6      1     34     12      -441.3    

      6 WELLS

                 RECHARGE =  9.358508E-05

 REUSING STREAM SEGMENT DATA FROM LAST STRESS PERIOD
 
 SOLVING FOR HEAD 


    25 CALLS TO PCG ROUTINE FOR TIME STEP     1 IN STRESS PERIOD    3
   184 TOTAL ITERATIONS

 MAXIMUM HEAD CHANGE FOR EACH ITERATION (1 INDICATES THE FIRST INNER ITERATION):

    HEAD CHANGE    HEAD CHANGE    HEAD CHANGE    HEAD CHANGE    HEAD CHANGE 
   LAYER,ROW,COL  LAYER,ROW,COL  LAYER,ROW,COL  LAYER,ROW,COL  LAYER,ROW,COL
 ---------------------------------------------------------------------------
  1  -1.922      0  -1.824      0 -0.9574      0 -0.3448      0 -0.2025    
   (  1,  9,  4)  (  1,  8,  5)  (  1, 32,  1)  (  1,  1, 10)  (  1,  1,  4)
  0 -0.7759E-01  0 -0.3961E-01  0 -0.2227E-01  0  0.9080E-02  0 -0.7283E-02
   (  1,  3,  1)  (  1, 25,  1)  (  1,  2,  1)  (  1, 33,  2)  (  1,  9,  4)
  0  0.3767E-02  0  0.2775E-02  0  0.7823E-03  0 -0.4824E-03  0 -0.1763E-03
   (  1, 27,  7)  (  1, 31,  3)  (  1, 37,  5)  (  1,  6,  2)  (  1, 18,  2)
  0  0.9263E-04  0  0.4417E-04  0  0.2905E-04  0  0.1527E-04  0 -0.5346E-05
   (  1, 24, 10)  (  1, 30,  2)  (  1,  9,  4)  (  1,  8,  6)  (  1, 39, 14)
  1  0.2450      0 -0.2554      0 -0.1568      0 -0.5165E-01  0 -0.2443E-01
   (  1,  9,  4)  (  1,  9,  4)  (  1,  8,  5)  (  1, 37,  5)  (  1, 26,  7)
  0 -0.1342E-01  0 -0.8088E-02  0  0.2939E-02  0  0.2531E-02  0 -0.1139E-02
   (  1, 31,  5)  (  1, 33,  2)  (  1, 32,  1)  (  1, 16,  4)  (  1,  8,  5)
  0 -0.7748E-03  0  0.4273E-03  0  0.2595E-03  0 -0.8428E-04  0  0.3765E-04
   (  1,  9,  4)  (  1,  9,  4)  (  1, 17,  4)  (  1, 11,  2)  (  1,  1,  2)
  0  0.1383E-04  0 -0.5867E-05  1  0.1231      0  0.7570E-01  0 -0.5447E-01
   (  1, 19,  4)  (  1, 13,  1)  (  1,  9,  4)  (  1,  8,  5)  (  1,  8,  5)
  0  0.1874E-01  0  0.1434E-01  0  0.7432E-02  0  0.4550E-02  0  0.1216E-02
   (  1, 23,  5)  (  1, 27,  1)  (  1, 19,  4)  (  1, 20,  2)  (  1, 37,  5)
  0  0.7959E-03  0 -0.6047E-03  0  0.3574E-03  0  0.1306E-03  0 -0.5498E-04
   (  1, 16,  4)  (  1,  9,  3)  (  1,  9,  4)  (  1,  4,  5)  (  1,  6,  7)
  0  0.2717E-04  0 -0.1104E-04  0 -0.8720E-05  1  0.4430E-01  0 -0.2957E-01
   (  1, 21,  3)  (  1, 26,  6)  (  1, 33,  2)  (  1,  9,  4)  (  1,  9,  4)
  0 -0.1707E-01  0  0.8305E-02  0  0.4888E-02  0  0.1793E-02  0  0.1050E-02
   (  1,  8,  5)  (  1,  8,  5)  (  1, 28,  1)  (  1, 20,  3)  (  1, 19,  3)
  0  0.4086E-03  0  0.2331E-03  0 -0.1183E-03  0 -0.8738E-04  0  0.7082E-04
   (  1, 37,  5)  (  1, 31, 10)  (  1,  7,  7)  (  1,  9,  4)  (  1,  9,  4)
  0 -0.2770E-04  0  0.1267E-04  0 -0.4759E-05  1 -0.1525E-01  0  0.2099E-01
   (  1, 32,  1)  (  1, 15,  2)  (  1, 19,  4)  (  1, 34, 12)  (  1,  9,  4)
  0 -0.6246E-02  0  0.2712E-02  0 -0.1799E-02  0  0.6934E-03  0  0.2919E-03
   (  1,  9,  4)  (  1,  8,  5)  (  1, 14,  2)  (  1, 20,  4)  (  1, 35, 10)
  0 -0.1840E-03  0 -0.6825E-04  0 -0.6128E-04  0 -0.2915E-04  0  0.3352E-04
   (  1, 19,  4)  (  1, 34,  3)  (  1,  8,  5)  (  1,  9,  4)  (  1,  9,  4)
  0 -0.1323E-04  0  0.3460E-05  1 -0.1395E-01  0  0.1406E-01  0  0.2701E-02
   (  1, 32,  1)  (  1, 14,  1)  (  1,  9,  4)  (  1,  9,  4)  (  1, 34, 12)
  0 -0.1310E-02  0  0.6354E-03  0 -0.3432E-03  0  0.1475E-03  0 -0.7659E-04
   (  1, 28,  7)  (  1,  9,  4)  (  1,  8,  5)  (  1, 13,  1)  (  1, 19,  4)
  0 -0.4128E-04  0  0.2907E-04  0 -0.2163E-04  0 -0.9032E-05  1 -0.6373E-02
   (  1,  9,  4)  (  1,  9,  2)  (  1,  9,  4)  (  1, 31,  5)  (  1,  9,  4)
  0  0.5900E-02  0  0.1270E-02  0  0.5678E-03  0  0.2482E-03  0 -0.1203E-03
   (  1,  9,  4)  (  1,  8,  5)  (  1, 34, 12)  (  1,  9,  4)  (  1,  8,  5)
  0 -0.5798E-04  0 -0.2608E-04  0 -0.1565E-04  0  0.8439E-05  1 -0.2166E-02
   (  1, 25,  3)  (  1, 19,  4)  (  1,  8,  4)  (  1, 14,  2)  (  1, 34, 12)
  0  0.1569E-02  0  0.4857E-03  0  0.2356E-03  0  0.9457E-04  0 -0.5543E-04
   (  1,  9,  4)  (  1, 34, 12)  (  1, 34, 12)  (  1,  9,  4)  (  1,  8,  5)
  0 -0.2378E-04  0  0.9949E-05  1 -0.1042E-02  0  0.4417E-03  0  0.1814E-03
   (  1, 25,  3)  (  1, 29,  3)  (  1, 34, 12)  (  1,  9,  4)  (  1,  8,  5)
  0 -0.1028E-03  0  0.3781E-04  0 -0.2746E-04  0  0.1128E-04  0  0.4577E-05
   (  1, 28,  7)  (  1,  6,  1)  (  1,  8,  5)  (  1,  8,  5)  (  1, 30,  4)
  1 -0.5869E-03  0 -0.1193E-03  0  0.1169E-03  0 -0.5986E-04  0  0.1759E-04
   (  1, 34, 12)  (  1, 32,  1)  (  1,  9,  4)  (  1, 27,  6)  (  1, 34, 12)
  0 -0.1235E-04  0  0.6157E-05  1 -0.3835E-03  0 -0.8228E-04  0  0.8065E-04
   (  1,  8,  4)  (  1,  7,  3)  (  1, 34, 12)  (  1, 32,  1)  (  1,  9,  4)
  0 -0.3770E-04  0 -0.1165E-04  0 -0.9246E-05  1 -0.2795E-03  0 -0.6857E-04
   (  1, 27,  6)  (  1, 37,  5)  (  1,  8,  5)  (  1, 34, 12)  (  1,  9,  4)
  0  0.4799E-04  0 -0.2522E-04  0  0.9765E-05  1 -0.2270E-03  0 -0.5241E-04
   (  1,  9,  4)  (  1, 27,  6)  (  1, 32,  1)  (  1, 39, 15)  (  1, 33,  2)
  0 -0.3791E-04  0 -0.1658E-04  0  0.7608E-05  1 -0.1821E-03  0  0.5730E-04
   (  1,  9,  4)  (  1, 28,  6)  (  1, 32,  1)  (  1, 39, 15)  (  1,  9,  4)
  0 -0.3416E-04  0 -0.1380E-04  0  0.6584E-05  1 -0.1426E-03  0  0.4486E-04
   (  1,  9,  4)  (  1, 28,  6)  (  1, 32,  1)  (  1, 39, 15)  (  1,  9,  4)
  0 -0.2577E-04  0 -0.1045E-04  0  0.5718E-05  1 -0.1091E-03  0  0.2529E-04
   (  1,  9,  4)  (  1, 28,  5)  (  1, 32,  1)  (  1, 39, 15)  (  1,  9,  4)
  0 -0.2007E-04  0 -0.7698E-05  1 -0.8168E-04  0  0.3118E-04  0 -0.1795E-04
   (  1,  9,  4)  (  1, 28,  5)  (  1, 39, 15)  (  1,  9,  4)  (  1,  9,  4)
  0 -0.4985E-05  1 -0.5994E-04  0 -0.1370E-04  0 -0.1470E-04  0 -0.3645E-05
   (  1, 27,  6)  (  1, 39, 15)  (  1, 32,  1)  (  1,  9,  4)  (  1, 28,  6)
  1 -0.4313E-04  0  0.1600E-04  0 -0.7748E-05  1 -0.3045E-04  0  0.1169E-04
   (  1, 39, 15)  (  1,  9,  4)  (  1,  9,  4)  (  1, 39, 15)  (  1, 27,  7)
  0  0.2740E-05  1 -0.2116E-04  0  0.1675E-04  0  0.5911E-05  1 -0.1446E-04
   (  1,  9,  4)  (  1, 39, 15)  (  1,  9,  4)  (  1,  8,  5)  (  1, 39, 15)
  0  0.8814E-05  1 -0.4233E-04  0  0.5194E-04  0 -0.1017E-04  0 -0.8357E-06
   (  1,  9,  4)  (  1,  9,  4)  (  1,  9,  4)  (  1,  8,  4)  (  1, 17,  2)
  1 -0.1617E-04  0  0.1778E-04  0 -0.2355E-05  1 -0.4467E-05
   (  1,  9,  4)  (  1,  9,  4)  (  1,  8,  5)  (  1,  9,  4)

 MAXIMUM RESIDUAL FOR EACH ITERATION (1 INDICATES THE FIRST INNER ITERATION):

    RESIDUAL       RESIDUAL       RESIDUAL       RESIDUAL       RESIDUAL    
   LAYER,ROW,COL  LAYER,ROW,COL  LAYER,ROW,COL  LAYER,ROW,COL  LAYER,ROW,COL
 ---------------------------------------------------------------------------
  1  -55.21      0   23.57      0   15.25      0   11.27      0   8.103    
   (  1,  9,  4)  (  1, 20, 14)  (  1,  1,  9)  (  1,  1, 13)  (  1,  2, 15)
  0   5.905      0   3.930      0   1.706      0  0.7656      0  0.6074    
   (  1,  1, 15)  (  1,  1, 15)  (  1,  1, 15)  (  1,  1, 15)  (  1,  1, 15)
  0  0.3711      0  0.1961      0  0.9853E-01  0  0.5039E-01  0  0.2459E-01
   (  1,  1, 15)  (  1,  1, 15)  (  1,  1, 15)  (  1,  1, 15)  (  1,  1, 15)
  0  0.1052E-01  0  0.4495E-02  0  0.3699E-02  0  0.1838E-02  0  0.7695E-03
   (  1,  1, 15)  (  1,  1, 15)  (  1,  1, 15)  (  1,  1, 15)  (  1,  1, 15)
  1   27.14      0   20.25      0   14.80      0   9.720      0   5.418    
   (  1, 22, 15)  (  1, 22, 15)  (  1, 22, 15)  (  1, 22, 15)  (  1, 22, 15)
  0   2.969      0   1.363      0  0.6643      0  0.3529      0  0.1752    
   (  1, 22, 15)  (  1, 22, 15)  (  1, 22, 15)  (  1, 19, 15)  (  1, 19, 15)
  0  0.1459      0  0.7240E-01  0  0.3136E-01  0  0.1304E-01  0  0.4862E-02
   (  1, 19, 15)  (  1, 19, 15)  (  1, 19, 15)  (  1, 19, 15)  (  1, 19, 15)
  0  0.2016E-02  0  0.8192E-03  1   34.45      0   25.18      0   15.42    
   (  1, 19, 15)  (  1, 19, 15)  (  1, 22, 15)  (  1, 22, 15)  (  1, 22, 15)
  0   8.331      0   4.019      0   1.797      0  0.7562      0  0.4035    
   (  1, 22, 15)  (  1, 22, 15)  (  1, 22, 15)  (  1, 22, 15)  (  1, 22, 15)
  0  0.1821      0  0.1030      0  0.6661E-01  0  0.2995E-01  0  0.1177E-01
   (  1, 22, 15)  (  1, 22, 15)  (  1, 22, 15)  (  1, 22, 15)  (  1, 22, 15)
  0  0.5007E-02  0  0.2036E-02  0  0.7996E-03  1   23.38      0   17.01    
   (  1, 22, 15)  (  1, 22, 15)  (  1, 22, 15)  (  1, 22, 15)  (  1, 22, 15)
  0   11.44      0   5.147      0   2.046      0  0.9116      0  0.3854    
   (  1, 22, 15)  (  1, 22, 15)  (  1, 22, 15)  (  1, 22, 15)  (  1, 22, 15)
  0  0.1974      0  0.9988E-01  0  0.3883E-01  0  0.2926E-01  0  0.1525E-01
   (  1, 22, 15)  (  1, 22, 15)  (  1, 22, 15)  (  1, 22, 15)  (  1, 22, 15)
  0  0.5814E-02  0  0.2515E-02  0  0.1027E-02  1   18.57      0   9.135    
   (  1, 22, 15)  (  1, 22, 15)  (  1, 22, 15)  (  1, 22, 15)  (  1, 22, 15)
  0   3.990      0   1.531      0  0.4853      0  0.2420      0  0.1066    
   (  1, 22, 15)  (  1, 22, 15)  (  1, 22, 15)  (  1, 22, 15)  (  1, 22, 15)
  0  0.4246E-01  0  0.1855E-01  0  0.9135E-02  0  0.7047E-02  0  0.3905E-02
   (  1, 22, 15)  (  1, 22, 15)  (  1, 22, 15)  (  1, 22, 15)  (  1, 31, 15)
  0  0.1530E-02  0  0.6684E-03  1   8.686      0   2.358      0  0.8878    
   (  1, 31, 15)  (  1, 31, 15)  (  1, 22, 15)  (  1, 22, 15)  (  1, 22, 15)
  0  0.3202      0  0.1026      0  0.5178E-01  0  0.2415E-01  0  0.1033E-01
   (  1, 22, 15)  (  1, 31, 15)  (  1, 31, 15)  (  1, 31, 15)  (  1, 31, 15)
  0  0.5530E-02  0  0.3234E-02  0  0.2103E-02  0  0.1040E-02  1   1.531    
   (  1, 31, 15)  (  1, 31, 15)  (  1, 31, 15)  (  1, 31, 15)  (  1, 31, 15)
  0  0.4549      0  0.1797      0  0.6773E-01  0  0.2520E-01  0 -0.1370E-01
   (  1, 31, 15)  (  1, 31, 15)  (  1, 31, 15)  (  1, 31, 15)  (  1,  9, 16)
  0 -0.7753E-02  0 -0.3952E-02  0 -0.2139E-02  0 -0.8045E-03  1  0.1816    
   (  1,  9, 16)  (  1,  9, 16)  (  1,  9, 16)  (  1,  9, 16)  (  1, 39, 15)
  0 -0.9521E-01  0 -0.5476E-01  0 -0.1929E-01  0 -0.9523E-02  0 -0.6338E-02
   (  1, 34, 12)  (  1, 34, 12)  (  1, 34, 12)  (  1,  9, 16)  (  1,  9, 16)
  0 -0.3355E-02  0 -0.1724E-02  1 -0.4788E-01  0 -0.3769E-01  0 -0.2405E-01
   (  1,  9, 16)  (  1,  9, 16)  (  1, 34, 12)  (  1, 34, 12)  (  1, 34, 12)
  0 -0.8668E-02  0 -0.4249E-02  0 -0.2833E-02  0 -0.1421E-02  0 -0.7173E-03
   (  1, 34, 12)  (  1,  9, 16)  (  1,  9, 16)  (  1,  9, 16)  (  1, 39, 15)
  1 -0.2357E-01  0 -0.1473E-01  0 -0.1135E-01  0 -0.4418E-02  0 -0.2203E-02
   (  1, 34, 12)  (  1, 34, 12)  (  1, 34, 12)  (  1, 34, 12)  (  1, 39, 15)
  0 -0.1699E-02  0 -0.1085E-02  1 -0.1337E-01  0 -0.8471E-02  0 -0.6343E-02
   (  1, 39, 15)  (  1, 39, 15)  (  1, 34, 12)  (  1, 34, 12)  (  1, 34, 12)
  0 -0.2827E-02  0 -0.2029E-02  0 -0.1516E-02  1 -0.8711E-02  0 -0.5053E-02
   (  1, 39, 15)  (  1, 39, 15)  (  1, 39, 15)  (  1, 34, 12)  (  1, 34, 12)
  0 -0.3997E-02  0 -0.2387E-02  0 -0.1666E-02  1 -0.6188E-02  0 -0.3374E-02
   (  1, 34, 12)  (  1, 39, 15)  (  1, 39, 15)  (  1, 34, 12)  (  1, 34, 12)
  0 -0.2655E-02  0 -0.1916E-02  0 -0.1361E-02  1 -0.4538E-02  0 -0.2817E-02
   (  1, 34, 12)  (  1, 39, 15)  (  1, 39, 15)  (  1, 34, 12)  (  1, 34, 12)
  0 -0.2041E-02  0 -0.1475E-02  0 -0.1097E-02  1 -0.3341E-02  0 -0.2117E-02
   (  1, 34, 12)  (  1, 39, 15)  (  1, 39, 15)  (  1, 34, 12)  (  1, 34, 12)
  0 -0.1479E-02  0 -0.1104E-02  0 -0.8297E-03  1 -0.2459E-02  0 -0.1516E-02
   (  1, 34, 12)  (  1, 39, 15)  (  1, 39, 15)  (  1, 34, 12)  (  1, 34, 12)
  0 -0.1064E-02  0 -0.8007E-03  1  0.1933E-02  0 -0.1173E-02  0 -0.7038E-03
   (  1, 34, 12)  (  1, 39, 15)  (  1, 36, 15)  (  1, 34, 12)  (  1, 34, 12)
  0 -0.6069E-03  1  0.1345E-02  0 -0.6875E-03  0 -0.4485E-03  0 -0.4317E-03
   (  1, 39, 15)  (  1, 36, 15)  (  1, 34, 12)  (  1, 34, 12)  (  1, 39, 15)
  1  0.9414E-03  0  0.5705E-03  0 -0.3009E-03  1  0.1454E-02  0 -0.2372E-03
   (  1, 36, 15)  (  1, 36, 15)  (  1, 34, 12)  (  1, 39, 15)  (  1, 39, 15)
  0 -0.2488E-03  1  0.9034E-03  0  0.3410E-03  0 -0.1589E-03  1  0.3453E-03
   (  1, 39, 15)  (  1, 39, 15)  (  1, 36, 15)  (  1, 39, 15)  (  1, 36, 15)
  0 -0.1831E-03  1  0.2522E-01  0  0.1646E-02  0  0.6363E-04  0 -0.6156E-04
   (  1,  8,  5)  (  1, 39, 15)  (  1, 39, 15)  (  1, 36, 15)  (  1, 39, 15)
  1  0.4165E-02  0  0.1427E-03  0  0.4293E-04  1  0.6805E-03
   (  1, 39, 15)  (  1, 36, 15)  (  1, 36, 15)  (  1, 39, 15)



 OUTPUT CONTROL FOR STRESS PERIOD    3   TIME STEP    1
    SAVE HEAD FOR ALL LAYERS
    SAVE BUDGET
 UBDSV2 SAVING "   CONSTANT HEAD" ON UNIT  53 AT TIME STEP  1, STRESS PERIOD   3
 UBDSV1 SAVING "FLOW RIGHT FACE " ON UNIT  53 AT TIME STEP  1, STRESS PERIOD   3
 UBDSV1 SAVING "FLOW FRONT FACE " ON UNIT  53 AT TIME STEP  1, STRESS PERIOD   3

 HEAD WILL BE SAVED ON UNIT   51 AT END OF TIME STEP    1, STRESS PERIOD    3
1
  VOLUMETRIC BUDGET FOR ENTIRE MODEL AT END OF TIME STEP    1, STRESS PERIOD   3
  ------------------------------------------------------------------------------

     CUMULATIVE VOLUMES      L**3       RATES FOR THIS TIME STEP      L**3/T
     ------------------                 ------------------------

           IN:                                      IN:
           ---                                      ---
             STORAGE =     2631373.7500               STORAGE =           0.0000
       CONSTANT HEAD =       72180.3047         CONSTANT HEAD =          54.3132
               WELLS =           0.0000                 WELLS =           0.0000
            RECHARGE =     7428880.0000              RECHARGE =        4065.1018
      STREAM LEAKAGE =      534281.0625        STREAM LEAKAGE =         523.5643

            TOTAL IN =    10666715.0000              TOTAL IN =        4642.9795

          OUT:                                     OUT:
          ----                                     ----
             STORAGE =           0.0000               STORAGE =           0.0000
       CONSTANT HEAD =      325179.3750         CONSTANT HEAD =          58.3957
               WELLS =     4234801.5000                 WELLS =        2327.2019
            RECHARGE =           0.0000              RECHARGE =           0.0000
      STREAM LEAKAGE =     6108634.0000        STREAM LEAKAGE =        2257.8313

           TOTAL OUT =    10668615.0000             TOTAL OUT =        4643.4287

            IN - OUT =       -1900.0000              IN - OUT =          -0.4492

 PERCENT DISCREPANCY =          -0.02     PERCENT DISCREPANCY =          -0.01






         TIME SUMMARY AT END OF TIME STEP    1 IN STRESS PERIOD    3
                    SECONDS     MINUTES      HOURS       DAYS        YEARS
                    -----------------------------------------------------------
   TIME STEP LENGTH  86400.      1440.0      24.000      1.0000     2.73785E-03
 STRESS PERIOD TIME  86400.      1440.0      24.000      1.0000     2.73785E-03
         TOTAL TIME 1.57853E+08 2.63088E+06  43848.      1827.0      5.0021    
1

 HEAD AND DRAWDOWN OBSERVATIONS
 OBSERVATION       OBSERVED           SIMULATED
   NAME              VALUE              VALUE             DIFFERENCE
 --------------------------------------------------------------------
 obswel1_1       22.219999313        23.787063599       -1.5670642853    
 obswel2_1       19.690000534        19.983114243      -0.29311370850    
 obswel3_1       22.709999084        24.474754333       -1.7647552490    
 obswel4_1       28.729999542        32.455989838       -3.7259902954    
 obswel5_1       18.250000000        18.482170105      -0.23217010498    
 obswel6_1       17.260000229        17.500368118      -0.24036788940    
 obswel7_1       18.010000229        17.599374771       0.41062545776    
 obswel8_1       15.649999619        15.597109795       5.28898239136E-02
 obswel9_1       23.319999695        23.312097549       7.90214538574E-03
 obswel10_1      21.739999771        20.824352264       0.91564750671    
 obswel11_1      14.649999619        13.968436241       0.68156337738    
 obswel12_1      18.920000076        17.409847260        1.5101528168    
 obswel13_1      14.420000076        14.224791527       0.19520854950    
 obswel14_1      14.850000381        14.658638000       0.19136238098    
 obswel1_2       22.010000229        23.541812897       -1.5318126678    
 obswel2_2       19.549999237        19.813999176      -0.26399993896    
 obswel3_2       22.459999084        24.205873489       -1.7458744049    
 obswel4_2       28.430000305        32.149314880       -3.7193145752    
 obswel5_2       18.030000687        18.234041214      -0.20404052734    
 obswel6_2       17.079999924        17.304466248      -0.22446632385    
 obswel7_2       17.780000687        17.359909058       0.42009162903    
 obswel8_2       15.500000000        15.441542625       5.84573745728E-02
 obswel9_2       23.010000229        22.997270584       1.27296447754E-02
 obswel10_2      21.450000763        20.504194260       0.94580650330    
 obswel11_2      14.449999809        13.808302879       0.64169692993    
 obswel12_2      19.020000458        17.122341156        1.8976593018    
 obswel13_2      14.930000305        13.963860512       0.96613979340    
 obswel14_2      14.649999619        14.417366028       0.23263359070    
 obswel1_3       21.149999619        22.215490341       -1.0654907227    
 obswel2_3       19.430000305        19.568725586      -0.13872528076    
 obswel3_3       21.430000305        22.646850586       -1.2168502808    
 obswel4_3       25.969999313        28.828960419       -2.8589611053    
 obswel5_3       17.549999237        17.573722839      -2.37236022949E-02
 obswel6_3       16.860000610        16.999715805      -0.13971519470    
 obswel7_3       16.899999619        16.389554977       0.51044464111    
 obswel8_3       15.289999962        15.227629662       6.23703002930E-02
 obswel9_3       21.059999466        20.592964172       0.46703529358    
 obswel10_3      19.790000916        18.509634018        1.2803668976    
 obswel11_3      14.109999657        13.585142136       0.52485752106    
 obswel12_3      18.450000763        15.932858467        2.5171422958    
 obswel13_3      15.130000114        13.385931015        1.7440690994    
 obswel14_3      14.039999962        13.629320145       0.41067981720    

 HEAD/DRAWDOWN SUM OF SQUARED DIFFERENCE:    7.17177E+01

 Run end date and time (yyyy/mm/dd hh:mm:ss): 2019/10/04 16:37:47
 Elapsed run time:  0.096 Seconds

